<routes>
    <vType accel="1.0" decel="4.5" id="standard_car" length="5.0" minGap="2.5" maxSpeed="25" sigma="0.5" />

    <route id="W_N" edges="W2TL TL2N"/>
    <route id="W_E" edges="W2TL TL2E"/>
    <route id="W_S" edges="W2TL TL2S"/>
    <route id="N_W" edges="N2TL TL2W"/>
    <route id="N_E" edges="N2TL TL2E"/>
    <route id="N_S" edges="N2TL TL2S"/>
    <route id="E_W" edges="E2TL TL2W"/>
    <route id="E_N" edges="E2TL TL2N"/>
    <route id="E_S" edges="E2TL TL2S"/>
    <route id="S_W" edges="S2TL TL2W"/>
    <route id="S_N" edges="S2TL TL2N"/>
    <route id="S_E" edges="S2TL TL2E"/>
    <vehicle id="E_W_0" type="standard_car" route="E_W" depart="0" departLane="random" departSpeed="10" />
    <vehicle id="S_N_1" type="standard_car" route="S_N" depart="4" departLane="random" departSpeed="10" />
    <vehicle id="W_N_2" type="standard_car" route="W_N" depart="26" departLane="random" departSpeed="10" />
    <vehicle id="W_S_3" type="standard_car" route="W_S" depart="64" departLane="random" departSpeed="10" />
    <vehicle id="W_S_4" type="standard_car" route="W_S" depart="76" departLane="random" departSpeed="10" />
    <vehicle id="E_W_5" type="standard_car" route="E_W" depart="80" departLane="random" departSpeed="10" />
    <vehicle id="N_S_6" type="standard_car" route="N_S" depart="82" departLane="random" departSpeed="10" />
    <vehicle id="S_N_7" type="standard_car" route="S_N" depart="107" departLane="random" departSpeed="10" />
    <vehicle id="S_N_8" type="standard_car" route="S_N" depart="117" departLane="random" departSpeed="10" />
    <vehicle id="S_N_9" type="standard_car" route="S_N" depart="144" departLane="random" departSpeed="10" />
    <vehicle id="W_E_10" type="standard_car" route="W_E" depart="149" departLane="random" departSpeed="10" />
    <vehicle id="W_N_11" type="standard_car" route="W_N" depart="154" departLane="random" departSpeed="10" />
    <vehicle id="W_S_12" type="standard_car" route="W_S" depart="179" departLane="random" departSpeed="10" />
    <vehicle id="E_W_13" type="standard_car" route="E_W" depart="180" departLane="random" departSpeed="10" />
    <vehicle id="N_W_14" type="standard_car" route="N_W" depart="198" departLane="random" departSpeed="10" />
    <vehicle id="E_W_15" type="standard_car" route="E_W" depart="201" departLane="random" departSpeed="10" />
    <vehicle id="E_W_16" type="standard_car" route="E_W" depart="217" departLane="random" departSpeed="10" />
    <vehicle id="E_N_17" type="standard_car" route="E_N" depart="244" departLane="random" departSpeed="10" />
    <vehicle id="N_E_18" type="standard_car" route="N_E" depart="255" departLane="random" departSpeed="10" />
    <vehicle id="N_S_19" type="standard_car" route="N_S" depart="256" departLane="random" departSpeed="10" />
    <vehicle id="N_S_20" type="standard_car" route="N_S" depart="263" departLane="random" departSpeed="10" />
    <vehicle id="E_N_21" type="standard_car" route="E_N" depart="266" departLane="random" departSpeed="10" />
    <vehicle id="E_N_22" type="standard_car" route="E_N" depart="279" departLane="random" departSpeed="10" />
    <vehicle id="W_E_23" type="standard_car" route="W_E" depart="300" departLane="random" departSpeed="10" />
    <vehicle id="E_W_24" type="standard_car" route="E_W" depart="303" departLane="random" departSpeed="10" />
    <vehicle id="W_E_25" type="standard_car" route="W_E" depart="333" departLane="random" departSpeed="10" />
    <vehicle id="S_N_26" type="standard_car" route="S_N" depart="348" departLane="random" departSpeed="10" />
    <vehicle id="S_N_27" type="standard_car" route="S_N" depart="348" departLane="random" departSpeed="10" />
    <vehicle id="E_W_28" type="standard_car" route="E_W" depart="366" departLane="random" departSpeed="10" />
    <vehicle id="E_W_29" type="standard_car" route="E_W" depart="370" departLane="random" departSpeed="10" />
    <vehicle id="E_W_30" type="standard_car" route="E_W" depart="373" departLane="random" departSpeed="10" />
    <vehicle id="W_E_31" type="standard_car" route="W_E" depart="379" departLane="random" departSpeed="10" />
    <vehicle id="W_E_32" type="standard_car" route="W_E" depart="385" departLane="random" departSpeed="10" />
    <vehicle id="S_N_33" type="standard_car" route="S_N" depart="393" departLane="random" departSpeed="10" />
    <vehicle id="W_E_34" type="standard_car" route="W_E" depart="396" departLane="random" departSpeed="10" />
    <vehicle id="N_S_35" type="standard_car" route="N_S" depart="398" departLane="random" departSpeed="10" />
    <vehicle id="E_W_36" type="standard_car" route="E_W" depart="401" departLane="random" departSpeed="10" />
    <vehicle id="S_W_37" type="standard_car" route="S_W" depart="405" departLane="random" departSpeed="10" />
    <vehicle id="E_W_38" type="standard_car" route="E_W" depart="406" departLane="random" departSpeed="10" />
    <vehicle id="E_W_39" type="standard_car" route="E_W" depart="408" departLane="random" departSpeed="10" />
    <vehicle id="S_N_40" type="standard_car" route="S_N" depart="412" departLane="random" departSpeed="10" />
    <vehicle id="E_W_41" type="standard_car" route="E_W" depart="415" departLane="random" departSpeed="10" />
    <vehicle id="E_W_42" type="standard_car" route="E_W" depart="415" departLane="random" departSpeed="10" />
    <vehicle id="S_N_43" type="standard_car" route="S_N" depart="417" departLane="random" departSpeed="10" />
    <vehicle id="N_S_44" type="standard_car" route="N_S" depart="420" departLane="random" departSpeed="10" />
    <vehicle id="S_N_45" type="standard_car" route="S_N" depart="422" departLane="random" departSpeed="10" />
    <vehicle id="E_W_46" type="standard_car" route="E_W" depart="425" departLane="random" departSpeed="10" />
    <vehicle id="W_E_47" type="standard_car" route="W_E" depart="435" departLane="random" departSpeed="10" />
    <vehicle id="S_E_48" type="standard_car" route="S_E" depart="439" departLane="random" departSpeed="10" />
    <vehicle id="N_S_49" type="standard_car" route="N_S" depart="440" departLane="random" departSpeed="10" />
    <vehicle id="N_S_50" type="standard_car" route="N_S" depart="444" departLane="random" departSpeed="10" />
    <vehicle id="N_S_51" type="standard_car" route="N_S" depart="454" departLane="random" departSpeed="10" />
    <vehicle id="S_N_52" type="standard_car" route="S_N" depart="456" departLane="random" departSpeed="10" />
    <vehicle id="N_S_53" type="standard_car" route="N_S" depart="458" departLane="random" departSpeed="10" />
    <vehicle id="S_N_54" type="standard_car" route="S_N" depart="461" departLane="random" departSpeed="10" />
    <vehicle id="N_S_55" type="standard_car" route="N_S" depart="463" departLane="random" departSpeed="10" />
    <vehicle id="E_W_56" type="standard_car" route="E_W" depart="464" departLane="random" departSpeed="10" />
    <vehicle id="E_N_57" type="standard_car" route="E_N" depart="469" departLane="random" departSpeed="10" />
    <vehicle id="S_N_58" type="standard_car" route="S_N" depart="491" departLane="random" departSpeed="10" />
    <vehicle id="S_N_59" type="standard_car" route="S_N" depart="496" departLane="random" departSpeed="10" />
    <vehicle id="W_E_60" type="standard_car" route="W_E" depart="502" departLane="random" departSpeed="10" />
    <vehicle id="N_S_61" type="standard_car" route="N_S" depart="502" departLane="random" departSpeed="10" />
    <vehicle id="W_E_62" type="standard_car" route="W_E" depart="505" departLane="random" departSpeed="10" />
    <vehicle id="E_W_63" type="standard_car" route="E_W" depart="513" departLane="random" departSpeed="10" />
    <vehicle id="E_W_64" type="standard_car" route="E_W" depart="516" departLane="random" departSpeed="10" />
    <vehicle id="S_W_65" type="standard_car" route="S_W" depart="525" departLane="random" departSpeed="10" />
    <vehicle id="W_S_66" type="standard_car" route="W_S" depart="535" departLane="random" departSpeed="10" />
    <vehicle id="N_S_67" type="standard_car" route="N_S" depart="538" departLane="random" departSpeed="10" />
    <vehicle id="S_N_68" type="standard_car" route="S_N" depart="541" departLane="random" departSpeed="10" />
    <vehicle id="S_N_69" type="standard_car" route="S_N" depart="550" departLane="random" departSpeed="10" />
    <vehicle id="E_S_70" type="standard_car" route="E_S" depart="551" departLane="random" departSpeed="10" />
    <vehicle id="S_N_71" type="standard_car" route="S_N" depart="557" departLane="random" departSpeed="10" />
    <vehicle id="S_N_72" type="standard_car" route="S_N" depart="561" departLane="random" departSpeed="10" />
    <vehicle id="S_N_73" type="standard_car" route="S_N" depart="563" departLane="random" departSpeed="10" />
    <vehicle id="S_N_74" type="standard_car" route="S_N" depart="566" departLane="random" departSpeed="10" />
    <vehicle id="N_S_75" type="standard_car" route="N_S" depart="570" departLane="random" departSpeed="10" />
    <vehicle id="S_N_76" type="standard_car" route="S_N" depart="574" departLane="random" departSpeed="10" />
    <vehicle id="E_W_77" type="standard_car" route="E_W" depart="581" departLane="random" departSpeed="10" />
    <vehicle id="W_E_78" type="standard_car" route="W_E" depart="588" departLane="random" departSpeed="10" />
    <vehicle id="W_E_79" type="standard_car" route="W_E" depart="597" departLane="random" departSpeed="10" />
    <vehicle id="S_N_80" type="standard_car" route="S_N" depart="600" departLane="random" departSpeed="10" />
    <vehicle id="N_S_81" type="standard_car" route="N_S" depart="606" departLane="random" departSpeed="10" />
    <vehicle id="N_S_82" type="standard_car" route="N_S" depart="607" departLane="random" departSpeed="10" />
    <vehicle id="W_E_83" type="standard_car" route="W_E" depart="607" departLane="random" departSpeed="10" />
    <vehicle id="W_N_84" type="standard_car" route="W_N" depart="609" departLane="random" departSpeed="10" />
    <vehicle id="W_E_85" type="standard_car" route="W_E" depart="618" departLane="random" departSpeed="10" />
    <vehicle id="W_N_86" type="standard_car" route="W_N" depart="618" departLane="random" departSpeed="10" />
    <vehicle id="S_N_87" type="standard_car" route="S_N" depart="619" departLane="random" departSpeed="10" />
    <vehicle id="S_E_88" type="standard_car" route="S_E" depart="625" departLane="random" departSpeed="10" />
    <vehicle id="S_W_89" type="standard_car" route="S_W" depart="640" departLane="random" departSpeed="10" />
    <vehicle id="E_W_90" type="standard_car" route="E_W" depart="650" departLane="random" departSpeed="10" />
    <vehicle id="W_S_91" type="standard_car" route="W_S" depart="653" departLane="random" departSpeed="10" />
    <vehicle id="N_S_92" type="standard_car" route="N_S" depart="660" departLane="random" departSpeed="10" />
    <vehicle id="S_E_93" type="standard_car" route="S_E" depart="660" departLane="random" departSpeed="10" />
    <vehicle id="S_E_94" type="standard_car" route="S_E" depart="663" departLane="random" departSpeed="10" />
    <vehicle id="E_W_95" type="standard_car" route="E_W" depart="664" departLane="random" departSpeed="10" />
    <vehicle id="N_S_96" type="standard_car" route="N_S" depart="667" departLane="random" departSpeed="10" />
    <vehicle id="S_N_97" type="standard_car" route="S_N" depart="685" departLane="random" departSpeed="10" />
    <vehicle id="N_S_98" type="standard_car" route="N_S" depart="687" departLane="random" departSpeed="10" />
    <vehicle id="S_W_99" type="standard_car" route="S_W" depart="697" departLane="random" departSpeed="10" />
    <vehicle id="S_N_100" type="standard_car" route="S_N" depart="698" departLane="random" departSpeed="10" />
    <vehicle id="W_E_101" type="standard_car" route="W_E" depart="699" departLane="random" departSpeed="10" />
    <vehicle id="S_N_102" type="standard_car" route="S_N" depart="713" departLane="random" departSpeed="10" />
    <vehicle id="W_N_103" type="standard_car" route="W_N" depart="722" departLane="random" departSpeed="10" />
    <vehicle id="W_E_104" type="standard_car" route="W_E" depart="722" departLane="random" departSpeed="10" />
    <vehicle id="S_N_105" type="standard_car" route="S_N" depart="732" departLane="random" departSpeed="10" />
    <vehicle id="E_W_106" type="standard_car" route="E_W" depart="737" departLane="random" departSpeed="10" />
    <vehicle id="E_W_107" type="standard_car" route="E_W" depart="740" departLane="random" departSpeed="10" />
    <vehicle id="E_S_108" type="standard_car" route="E_S" depart="745" departLane="random" departSpeed="10" />
    <vehicle id="S_N_109" type="standard_car" route="S_N" depart="745" departLane="random" departSpeed="10" />
    <vehicle id="W_E_110" type="standard_car" route="W_E" depart="746" departLane="random" departSpeed="10" />
    <vehicle id="W_E_111" type="standard_car" route="W_E" depart="752" departLane="random" departSpeed="10" />
    <vehicle id="W_E_112" type="standard_car" route="W_E" depart="753" departLane="random" departSpeed="10" />
    <vehicle id="S_N_113" type="standard_car" route="S_N" depart="753" departLane="random" departSpeed="10" />
    <vehicle id="N_S_114" type="standard_car" route="N_S" depart="754" departLane="random" departSpeed="10" />
    <vehicle id="S_E_115" type="standard_car" route="S_E" depart="755" departLane="random" departSpeed="10" />
    <vehicle id="W_N_116" type="standard_car" route="W_N" depart="756" departLane="random" departSpeed="10" />
    <vehicle id="W_E_117" type="standard_car" route="W_E" depart="765" departLane="random" departSpeed="10" />
    <vehicle id="S_N_118" type="standard_car" route="S_N" depart="771" departLane="random" departSpeed="10" />
    <vehicle id="W_E_119" type="standard_car" route="W_E" depart="779" departLane="random" departSpeed="10" />
    <vehicle id="N_S_120" type="standard_car" route="N_S" depart="784" departLane="random" departSpeed="10" />
    <vehicle id="W_E_121" type="standard_car" route="W_E" depart="785" departLane="random" departSpeed="10" />
    <vehicle id="S_N_122" type="standard_car" route="S_N" depart="785" departLane="random" departSpeed="10" />
    <vehicle id="W_E_123" type="standard_car" route="W_E" depart="793" departLane="random" departSpeed="10" />
    <vehicle id="E_N_124" type="standard_car" route="E_N" depart="794" departLane="random" departSpeed="10" />
    <vehicle id="W_E_125" type="standard_car" route="W_E" depart="796" departLane="random" departSpeed="10" />
    <vehicle id="W_E_126" type="standard_car" route="W_E" depart="802" departLane="random" departSpeed="10" />
    <vehicle id="S_N_127" type="standard_car" route="S_N" depart="804" departLane="random" departSpeed="10" />
    <vehicle id="E_N_128" type="standard_car" route="E_N" depart="804" departLane="random" departSpeed="10" />
    <vehicle id="E_W_129" type="standard_car" route="E_W" depart="806" departLane="random" departSpeed="10" />
    <vehicle id="N_S_130" type="standard_car" route="N_S" depart="806" departLane="random" departSpeed="10" />
    <vehicle id="W_E_131" type="standard_car" route="W_E" depart="807" departLane="random" departSpeed="10" />
    <vehicle id="N_W_132" type="standard_car" route="N_W" depart="811" departLane="random" departSpeed="10" />
    <vehicle id="E_W_133" type="standard_car" route="E_W" depart="817" departLane="random" departSpeed="10" />
    <vehicle id="S_N_134" type="standard_car" route="S_N" depart="822" departLane="random" departSpeed="10" />
    <vehicle id="W_S_135" type="standard_car" route="W_S" depart="822" departLane="random" departSpeed="10" />
    <vehicle id="W_E_136" type="standard_car" route="W_E" depart="823" departLane="random" departSpeed="10" />
    <vehicle id="N_S_137" type="standard_car" route="N_S" depart="823" departLane="random" departSpeed="10" />
    <vehicle id="N_W_138" type="standard_car" route="N_W" depart="825" departLane="random" departSpeed="10" />
    <vehicle id="E_W_139" type="standard_car" route="E_W" depart="836" departLane="random" departSpeed="10" />
    <vehicle id="S_N_140" type="standard_car" route="S_N" depart="836" departLane="random" departSpeed="10" />
    <vehicle id="N_S_141" type="standard_car" route="N_S" depart="841" departLane="random" departSpeed="10" />
    <vehicle id="E_W_142" type="standard_car" route="E_W" depart="843" departLane="random" departSpeed="10" />
    <vehicle id="S_N_143" type="standard_car" route="S_N" depart="846" departLane="random" departSpeed="10" />
    <vehicle id="E_W_144" type="standard_car" route="E_W" depart="850" departLane="random" departSpeed="10" />
    <vehicle id="S_N_145" type="standard_car" route="S_N" depart="850" departLane="random" departSpeed="10" />
    <vehicle id="W_N_146" type="standard_car" route="W_N" depart="857" departLane="random" departSpeed="10" />
    <vehicle id="W_E_147" type="standard_car" route="W_E" depart="859" departLane="random" departSpeed="10" />
    <vehicle id="S_N_148" type="standard_car" route="S_N" depart="863" departLane="random" departSpeed="10" />
    <vehicle id="E_S_149" type="standard_car" route="E_S" depart="874" departLane="random" departSpeed="10" />
    <vehicle id="E_W_150" type="standard_car" route="E_W" depart="878" departLane="random" departSpeed="10" />
    <vehicle id="S_N_151" type="standard_car" route="S_N" depart="878" departLane="random" departSpeed="10" />
    <vehicle id="S_N_152" type="standard_car" route="S_N" depart="879" departLane="random" departSpeed="10" />
    <vehicle id="S_N_153" type="standard_car" route="S_N" depart="887" departLane="random" departSpeed="10" />
    <vehicle id="N_S_154" type="standard_car" route="N_S" depart="887" departLane="random" departSpeed="10" />
    <vehicle id="N_S_155" type="standard_car" route="N_S" depart="888" departLane="random" departSpeed="10" />
    <vehicle id="E_W_156" type="standard_car" route="E_W" depart="890" departLane="random" departSpeed="10" />
    <vehicle id="S_N_157" type="standard_car" route="S_N" depart="907" departLane="random" departSpeed="10" />
    <vehicle id="W_N_158" type="standard_car" route="W_N" depart="911" departLane="random" departSpeed="10" />
    <vehicle id="N_W_159" type="standard_car" route="N_W" depart="914" departLane="random" departSpeed="10" />
    <vehicle id="S_N_160" type="standard_car" route="S_N" depart="919" departLane="random" departSpeed="10" />
    <vehicle id="N_S_161" type="standard_car" route="N_S" depart="928" departLane="random" departSpeed="10" />
    <vehicle id="N_E_162" type="standard_car" route="N_E" depart="928" departLane="random" departSpeed="10" />
    <vehicle id="W_S_163" type="standard_car" route="W_S" depart="939" departLane="random" departSpeed="10" />
    <vehicle id="N_E_164" type="standard_car" route="N_E" depart="940" departLane="random" departSpeed="10" />
    <vehicle id="S_N_165" type="standard_car" route="S_N" depart="942" departLane="random" departSpeed="10" />
    <vehicle id="E_N_166" type="standard_car" route="E_N" depart="945" departLane="random" departSpeed="10" />
    <vehicle id="N_S_167" type="standard_car" route="N_S" depart="952" departLane="random" departSpeed="10" />
    <vehicle id="E_W_168" type="standard_car" route="E_W" depart="955" departLane="random" departSpeed="10" />
    <vehicle id="W_E_169" type="standard_car" route="W_E" depart="957" departLane="random" departSpeed="10" />
    <vehicle id="S_N_170" type="standard_car" route="S_N" depart="959" departLane="random" departSpeed="10" />
    <vehicle id="W_E_171" type="standard_car" route="W_E" depart="959" departLane="random" departSpeed="10" />
    <vehicle id="N_W_172" type="standard_car" route="N_W" depart="960" departLane="random" departSpeed="10" />
    <vehicle id="E_W_173" type="standard_car" route="E_W" depart="963" departLane="random" departSpeed="10" />
    <vehicle id="W_E_174" type="standard_car" route="W_E" depart="963" departLane="random" departSpeed="10" />
    <vehicle id="E_W_175" type="standard_car" route="E_W" depart="963" departLane="random" departSpeed="10" />
    <vehicle id="N_S_176" type="standard_car" route="N_S" depart="966" departLane="random" departSpeed="10" />
    <vehicle id="N_S_177" type="standard_car" route="N_S" depart="971" departLane="random" departSpeed="10" />
    <vehicle id="W_E_178" type="standard_car" route="W_E" depart="973" departLane="random" departSpeed="10" />
    <vehicle id="N_S_179" type="standard_car" route="N_S" depart="974" departLane="random" departSpeed="10" />
    <vehicle id="N_S_180" type="standard_car" route="N_S" depart="976" departLane="random" departSpeed="10" />
    <vehicle id="S_N_181" type="standard_car" route="S_N" depart="981" departLane="random" departSpeed="10" />
    <vehicle id="E_S_182" type="standard_car" route="E_S" depart="982" departLane="random" departSpeed="10" />
    <vehicle id="S_N_183" type="standard_car" route="S_N" depart="1002" departLane="random" departSpeed="10" />
    <vehicle id="W_S_184" type="standard_car" route="W_S" depart="1006" departLane="random" departSpeed="10" />
    <vehicle id="W_N_185" type="standard_car" route="W_N" depart="1008" departLane="random" departSpeed="10" />
    <vehicle id="W_E_186" type="standard_car" route="W_E" depart="1008" departLane="random" departSpeed="10" />
    <vehicle id="N_S_187" type="standard_car" route="N_S" depart="1017" departLane="random" departSpeed="10" />
    <vehicle id="N_S_188" type="standard_car" route="N_S" depart="1021" departLane="random" departSpeed="10" />
    <vehicle id="S_N_189" type="standard_car" route="S_N" depart="1021" departLane="random" departSpeed="10" />
    <vehicle id="E_W_190" type="standard_car" route="E_W" depart="1027" departLane="random" departSpeed="10" />
    <vehicle id="S_N_191" type="standard_car" route="S_N" depart="1030" departLane="random" departSpeed="10" />
    <vehicle id="S_E_192" type="standard_car" route="S_E" depart="1034" departLane="random" departSpeed="10" />
    <vehicle id="N_S_193" type="standard_car" route="N_S" depart="1036" departLane="random" departSpeed="10" />
    <vehicle id="W_E_194" type="standard_car" route="W_E" depart="1039" departLane="random" departSpeed="10" />
    <vehicle id="E_W_195" type="standard_car" route="E_W" depart="1041" departLane="random" departSpeed="10" />
    <vehicle id="S_N_196" type="standard_car" route="S_N" depart="1042" departLane="random" departSpeed="10" />
    <vehicle id="N_E_197" type="standard_car" route="N_E" depart="1043" departLane="random" departSpeed="10" />
    <vehicle id="E_W_198" type="standard_car" route="E_W" depart="1047" departLane="random" departSpeed="10" />
    <vehicle id="S_N_199" type="standard_car" route="S_N" depart="1059" departLane="random" departSpeed="10" />
    <vehicle id="S_E_200" type="standard_car" route="S_E" depart="1062" departLane="random" departSpeed="10" />
    <vehicle id="E_W_201" type="standard_car" route="E_W" depart="1064" departLane="random" departSpeed="10" />
    <vehicle id="S_N_202" type="standard_car" route="S_N" depart="1066" departLane="random" departSpeed="10" />
    <vehicle id="W_E_203" type="standard_car" route="W_E" depart="1080" departLane="random" departSpeed="10" />
    <vehicle id="S_W_204" type="standard_car" route="S_W" depart="1084" departLane="random" departSpeed="10" />
    <vehicle id="S_N_205" type="standard_car" route="S_N" depart="1087" departLane="random" departSpeed="10" />
    <vehicle id="E_W_206" type="standard_car" route="E_W" depart="1089" departLane="random" departSpeed="10" />
    <vehicle id="S_N_207" type="standard_car" route="S_N" depart="1091" departLane="random" departSpeed="10" />
    <vehicle id="S_N_208" type="standard_car" route="S_N" depart="1092" departLane="random" departSpeed="10" />
    <vehicle id="N_S_209" type="standard_car" route="N_S" depart="1096" departLane="random" departSpeed="10" />
    <vehicle id="N_S_210" type="standard_car" route="N_S" depart="1101" departLane="random" departSpeed="10" />
    <vehicle id="E_W_211" type="standard_car" route="E_W" depart="1101" departLane="random" departSpeed="10" />
    <vehicle id="E_W_212" type="standard_car" route="E_W" depart="1106" departLane="random" departSpeed="10" />
    <vehicle id="E_W_213" type="standard_car" route="E_W" depart="1109" departLane="random" departSpeed="10" />
    <vehicle id="N_E_214" type="standard_car" route="N_E" depart="1109" departLane="random" departSpeed="10" />
    <vehicle id="S_N_215" type="standard_car" route="S_N" depart="1111" departLane="random" departSpeed="10" />
    <vehicle id="S_N_216" type="standard_car" route="S_N" depart="1114" departLane="random" departSpeed="10" />
    <vehicle id="S_N_217" type="standard_car" route="S_N" depart="1115" departLane="random" departSpeed="10" />
    <vehicle id="S_E_218" type="standard_car" route="S_E" depart="1116" departLane="random" departSpeed="10" />
    <vehicle id="W_E_219" type="standard_car" route="W_E" depart="1121" departLane="random" departSpeed="10" />
    <vehicle id="S_N_220" type="standard_car" route="S_N" depart="1123" departLane="random" departSpeed="10" />
    <vehicle id="N_S_221" type="standard_car" route="N_S" depart="1127" departLane="random" departSpeed="10" />
    <vehicle id="S_W_222" type="standard_car" route="S_W" depart="1129" departLane="random" departSpeed="10" />
    <vehicle id="N_E_223" type="standard_car" route="N_E" depart="1131" departLane="random" departSpeed="10" />
    <vehicle id="N_W_224" type="standard_car" route="N_W" depart="1134" departLane="random" departSpeed="10" />
    <vehicle id="W_E_225" type="standard_car" route="W_E" depart="1134" departLane="random" departSpeed="10" />
    <vehicle id="S_N_226" type="standard_car" route="S_N" depart="1138" departLane="random" departSpeed="10" />
    <vehicle id="E_W_227" type="standard_car" route="E_W" depart="1143" departLane="random" departSpeed="10" />
    <vehicle id="W_N_228" type="standard_car" route="W_N" depart="1144" departLane="random" departSpeed="10" />
    <vehicle id="W_S_229" type="standard_car" route="W_S" depart="1145" departLane="random" departSpeed="10" />
    <vehicle id="N_S_230" type="standard_car" route="N_S" depart="1146" departLane="random" departSpeed="10" />
    <vehicle id="S_W_231" type="standard_car" route="S_W" depart="1148" departLane="random" departSpeed="10" />
    <vehicle id="W_E_232" type="standard_car" route="W_E" depart="1155" departLane="random" departSpeed="10" />
    <vehicle id="N_W_233" type="standard_car" route="N_W" depart="1159" departLane="random" departSpeed="10" />
    <vehicle id="N_S_234" type="standard_car" route="N_S" depart="1161" departLane="random" departSpeed="10" />
    <vehicle id="S_W_235" type="standard_car" route="S_W" depart="1162" departLane="random" departSpeed="10" />
    <vehicle id="N_S_236" type="standard_car" route="N_S" depart="1163" departLane="random" departSpeed="10" />
    <vehicle id="E_W_237" type="standard_car" route="E_W" depart="1173" departLane="random" departSpeed="10" />
    <vehicle id="E_W_238" type="standard_car" route="E_W" depart="1177" departLane="random" departSpeed="10" />
    <vehicle id="W_N_239" type="standard_car" route="W_N" depart="1182" departLane="random" departSpeed="10" />
    <vehicle id="W_E_240" type="standard_car" route="W_E" depart="1185" departLane="random" departSpeed="10" />
    <vehicle id="N_S_241" type="standard_car" route="N_S" depart="1189" departLane="random" departSpeed="10" />
    <vehicle id="S_N_242" type="standard_car" route="S_N" depart="1194" departLane="random" departSpeed="10" />
    <vehicle id="N_S_243" type="standard_car" route="N_S" depart="1194" departLane="random" departSpeed="10" />
    <vehicle id="E_W_244" type="standard_car" route="E_W" depart="1200" departLane="random" departSpeed="10" />
    <vehicle id="E_W_245" type="standard_car" route="E_W" depart="1203" departLane="random" departSpeed="10" />
    <vehicle id="N_S_246" type="standard_car" route="N_S" depart="1203" departLane="random" departSpeed="10" />
    <vehicle id="E_W_247" type="standard_car" route="E_W" depart="1204" departLane="random" departSpeed="10" />
    <vehicle id="N_S_248" type="standard_car" route="N_S" depart="1205" departLane="random" departSpeed="10" />
    <vehicle id="S_N_249" type="standard_car" route="S_N" depart="1207" departLane="random" departSpeed="10" />
    <vehicle id="S_N_250" type="standard_car" route="S_N" depart="1208" departLane="random" departSpeed="10" />
    <vehicle id="S_N_251" type="standard_car" route="S_N" depart="1215" departLane="random" departSpeed="10" />
    <vehicle id="W_E_252" type="standard_car" route="W_E" depart="1223" departLane="random" departSpeed="10" />
    <vehicle id="E_W_253" type="standard_car" route="E_W" depart="1226" departLane="random" departSpeed="10" />
    <vehicle id="S_E_254" type="standard_car" route="S_E" depart="1227" departLane="random" departSpeed="10" />
    <vehicle id="W_E_255" type="standard_car" route="W_E" depart="1230" departLane="random" departSpeed="10" />
    <vehicle id="W_N_256" type="standard_car" route="W_N" depart="1234" departLane="random" departSpeed="10" />
    <vehicle id="N_W_257" type="standard_car" route="N_W" depart="1234" departLane="random" departSpeed="10" />
    <vehicle id="N_S_258" type="standard_car" route="N_S" depart="1235" departLane="random" departSpeed="10" />
    <vehicle id="E_W_259" type="standard_car" route="E_W" depart="1242" departLane="random" departSpeed="10" />
    <vehicle id="S_N_260" type="standard_car" route="S_N" depart="1248" departLane="random" departSpeed="10" />
    <vehicle id="E_W_261" type="standard_car" route="E_W" depart="1251" departLane="random" departSpeed="10" />
    <vehicle id="N_S_262" type="standard_car" route="N_S" depart="1255" departLane="random" departSpeed="10" />
    <vehicle id="W_E_263" type="standard_car" route="W_E" depart="1256" departLane="random" departSpeed="10" />
    <vehicle id="S_E_264" type="standard_car" route="S_E" depart="1262" departLane="random" departSpeed="10" />