<?xml version="1.0" encoding="UTF-8"?>
<net version="1.0" junctionCornerDetail="5" limitTurnSpeed="5.50" xmlns:xsi="http://www.w3.org/2001/XMLSchema-instance" xsi:noNamespaceSchemaLocation="http://sumo.dlr.de/xsd/net_file.xsd">

    <location netOffset="0.00,0.00" convBoundary="-750.00,-750.00,2250.00,2250.00" origBoundary="-10000000000.00,-10000000000.00,10000000000.00,10000000000.00" projParameter="!"/>

    <edge id=":TL_0_0_0" function="internal">
        <lane id=":TL_0_0_0_0" index="0" speed="6.51" length="9.03" shape="-11.20,1516.80 -11.55,1514.35 -12.60,1512.60 -14.35,1511.55 -16.80,1511.20" />
    </edge>
    <edge id=":TL_0_0_1" function="internal">
        <lane id=":TL_0_0_1_0" index="0" speed="13.89" length="33.60" shape="-11.20,1516.80 -11.20,1483.20" />
        <lane id=":TL_0_0_1_1" index="1" speed="13.89" length="33.60" shape="-8.00,1516.80 -8.00,1483.20" />
        <lane id=":TL_0_0_1_2" index="2" speed="13.89" length="33.60" shape="-4.80,1516.80 -4.80,1483.20" />
    </edge>
    <edge id=":TL_0_0_4" function="internal">
        <lane id=":TL_0_0_4_0" index="0" speed="11.36" length="29.67" shape="-1.60,1516.80 -0.45,1508.75 3.00,1503.00 8.75,1499.55 16.80,1498.40" />
    </edge>
    <edge id=":TL_0_0_5" function="internal">
        <lane id=":TL_0_0_5_0" index="0" speed="6.51" length="9.03" shape="16.80,1511.20 14.35,1511.55 12.60,1512.60 11.55,1514.35 11.20,1516.80" />
    </edge>
    <edge id=":TL_0_0_6" function="internal">
        <lane id=":TL_0_0_6_0" index="0" speed="13.89" length="33.60" shape="16.80,1511.20 -16.80,1511.20" />
        <lane id=":TL_0_0_6_1" index="1" speed="13.89" length="33.60" shape="16.80,1508.00 -16.80,1508.00" />
        <lane id=":TL_0_0_6_2" index="2" speed="13.89" length="33.60" shape="16.80,1504.80 -16.80,1504.80" />
    </edge>
    <edge id=":TL_0_0_9" function="internal">
        <lane id=":TL_0_0_9_0" index="0" speed="11.36" length="29.67" shape="16.80,1501.60 8.75,1500.45 3.00,1497.00 -0.45,1491.25 -1.60,1483.20" />
    </edge>
    <edge id=":TL_0_0_10" function="internal">
        <lane id=":TL_0_0_10_0" index="0" speed="6.51" length="9.03" shape="11.20,1483.20 11.55,1485.65 12.60,1487.40 14.35,1488.45 16.80,1488.80" />
    </edge>
    <edge id=":TL_0_0_11" function="internal">
        <lane id=":TL_0_0_11_0" index="0" speed="13.89" length="33.60" shape="11.20,1483.20 11.20,1516.80" />
        <lane id=":TL_0_0_11_1" index="1" speed="13.89" length="33.60" shape="8.00,1483.20 8.00,1516.80" />
        <lane id=":TL_0_0_11_2" index="2" speed="13.89" length="33.60" shape="4.80,1483.20 4.80,1516.80" />
    </edge>
    <edge id=":TL_0_0_14" function="internal">
        <lane id=":TL_0_0_14_0" index="0" speed="11.36" length="29.67" shape="1.60,1483.20 0.45,1491.25 -3.00,1497.00 -8.75,1500.45 -16.80,1501.60" />
    </edge>
    <edge id=":TL_0_0_15" function="internal">
        <lane id=":TL_0_0_15_0" index="0" speed="6.51" length="9.03" shape="-16.80,1488.80 -14.35,1488.45 -12.60,1487.40 -11.55,1485.65 -11.20,1483.20" />
    </edge>
    <edge id=":TL_0_0_16" function="internal">
        <lane id=":TL_0_0_16_0" index="0" speed="13.89" length="33.60" shape="-16.80,1488.80 16.80,1488.80" />
        <lane id=":TL_0_0_16_1" index="1" speed="13.89" length="33.60" shape="-16.80,1492.00 16.80,1492.00" />
        <lane id=":TL_0_0_16_2" index="2" speed="13.89" length="33.60" shape="-16.80,1495.20 16.80,1495.20" />
    </edge>
    <edge id=":TL_0_0_19" function="internal">
        <lane id=":TL_0_0_19_0" index="0" speed="11.36" length="29.67" shape="-16.80,1498.40 -8.75,1499.55 -3.00,1503.00 0.45,1508.75 1.60,1516.80" />
    </edge>

    <edge id=":TL_0_1_0" function="internal">
        <lane id=":TL_0_1_0_0" index="0" speed="6.51" length="9.03" shape="1488.80,1516.80 1488.45,1514.35 1487.40,1512.60 1485.65,1511.55 1483.20,1511.20" />
    </edge>
    <edge id=":TL_0_1_1" function="internal">
        <lane id=":TL_0_1_1_0" index="0" speed="13.89" length="33.60" shape="1488.80,1516.80 1488.80,1483.20" />
        <lane id=":TL_0_1_1_1" index="1" speed="13.89" length="33.60" shape="1492.00,1516.80 1492.00,1483.20" />
        <lane id=":TL_0_1_1_2" index="2" speed="13.89" length="33.60" shape="1495.20,1516.80 1495.20,1483.20" />
    </edge>
    <edge id=":TL_0_1_4" function="internal">
        <lane id=":TL_0_1_4_0" index="0" speed="11.36" length="29.67" shape="1498.40,1516.80 1499.55,1508.75 1503.00,1503.00 1508.75,1499.55 1516.80,1498.40" />
    </edge>
    <edge id=":TL_0_1_5" function="internal">
        <lane id=":TL_0_1_5_0" index="0" speed="6.51" length="9.03" shape="1516.80,1511.20 1514.35,1511.55 1512.60,1512.60 1511.55,1514.35 1511.20,1516.80" />
    </edge>
    <edge id=":TL_0_1_6" function="internal">
        <lane id=":TL_0_1_6_0" index="0" speed="13.89" length="33.60" shape="1516.80,1511.20 1483.20,1511.20" />
        <lane id=":TL_0_1_6_1" index="1" speed="13.89" length="33.60" shape="1516.80,1508.00 1483.20,1508.00" />
        <lane id=":TL_0_1_6_2" index="2" speed="13.89" length="33.60" shape="1516.80,1504.80 1483.20,1504.80" />
    </edge>
    <edge id=":TL_0_1_9" function="internal">
        <lane id=":TL_0_1_9_0" index="0" speed="11.36" length="29.67" shape="1516.80,1501.60 1508.75,1500.45 1503.00,1497.00 1499.55,1491.25 1498.40,1483.20" />
    </edge>
    <edge id=":TL_0_1_10" function="internal">
        <lane id=":TL_0_1_10_0" index="0" speed="6.51" length="9.03" shape="1511.20,1483.20 1511.55,1485.65 1512.60,1487.40 1514.35,1488.45 1516.80,1488.80" />
    </edge>
    <edge id=":TL_0_1_11" function="internal">
        <lane id=":TL_0_1_11_0" index="0" speed="13.89" length="33.60" shape="1511.20,1483.20 1511.20,1516.80" />
        <lane id=":TL_0_1_11_1" index="1" speed="13.89" length="33.60" shape="1508.00,1483.20 1508.00,1516.80" />
        <lane id=":TL_0_1_11_2" index="2" speed="13.89" length="33.60" shape="1504.80,1483.20 1504.80,1516.80" />
    </edge>
    <edge id=":TL_0_1_14" function="internal">
        <lane id=":TL_0_1_14_0" index="0" speed="11.36" length="29.67" shape="1501.60,1483.20 1500.45,1491.25 1497.00,1497.00 1491.25,1500.45 1483.20,1501.60" />
    </edge>
    <edge id=":TL_0_1_15" function="internal">
        <lane id=":TL_0_1_15_0" index="0" speed="6.51" length="9.03" shape="1483.20,1488.80 1485.65,1488.45 1487.40,1487.40 1488.45,1485.65 1488.80,1483.20" />
    </edge>
    <edge id=":TL_0_1_16" function="internal">
        <lane id=":TL_0_1_16_0" index="0" speed="13.89" length="33.60" shape="1483.20,1488.80 1516.80,1488.80" />
        <lane id=":TL_0_1_16_1" index="1" speed="13.89" length="33.60" shape="1483.20,1492.00 1516.80,1492.00" />
        <lane id=":TL_0_1_16_2" index="2" speed="13.89" length="33.60" shape="1483.20,1495.20 1516.80,1495.20" />
    </edge>
    <edge id=":TL_0_1_19" function="internal">
        <lane id=":TL_0_1_19_0" index="0" speed="11.36" length="29.67" shape="1483.20,1498.40 1491.25,1499.55 1497.00,1503.00 1500.45,1508.75 1501.60,1516.80" />
    </edge>

    <edge id=":TL_1_0_0" function="internal">
        <lane id=":TL_1_0_0_0" index="0" speed="6.51" length="9.03" shape="-11.20,16.80 -11.55,14.35 -12.60,12.60 -14.35,11.55 -16.80,11.20" />
    </edge>
    <edge id=":TL_1_0_1" function="internal">
        <lane id=":TL_1_0_1_0" index="0" speed="13.89" length="33.60" shape="-11.20,16.80 -11.20,-16.80" />
        <lane id=":TL_1_0_1_1" index="1" speed="13.89" length="33.60" shape="-8.00,16.80 -8.00,-16.80" />
        <lane id=":TL_1_0_1_2" index="2" speed="13.89" length="33.60" shape="-4.80,16.80 -4.80,-16.80" />
    </edge>
    <edge id=":TL_1_0_4" function="internal">
        <lane id=":TL_1_0_4_0" index="0" speed="11.36" length="29.67" shape="-1.60,16.80 -0.45,8.75 3.00,3.00 8.75,-0.45 16.80,-1.60" />
    </edge>
    <edge id=":TL_1_0_5" function="internal">
        <lane id=":TL_1_0_5_0" index="0" speed="6.51" length="9.03" shape="16.80,11.20 14.35,11.55 12.60,12.60 11.55,14.35 11.20,16.80" />
    </edge>
    <edge id=":TL_1_0_6" function="internal">
        <lane id=":TL_1_0_6_0" index="0" speed="13.89" length="33.60" shape="16.80,11.20 -16.80,11.20" />
        <lane id=":TL_1_0_6_1" index="1" speed="13.89" length="33.60" shape="16.80,8.00 -16.80,8.00" />
        <lane id=":TL_1_0_6_2" index="2" speed="13.89" length="33.60" shape="16.80,4.80 -16.80,4.80" />
    </edge>
    <edge id=":TL_1_0_9" function="internal">
        <lane id=":TL_1_0_9_0" index="0" speed="11.36" length="29.67" shape="16.80,1.60 8.75,0.45 3.00,-3.00 -0.45,-8.75 -1.60,-16.80" />
    </edge>
    <edge id=":TL_1_0_10" function="internal">
        <lane id=":TL_1_0_10_0" index="0" speed="6.51" length="9.03" shape="11.20,-16.80 11.55,-14.35 12.60,-12.60 14.35,-11.55 16.80,-11.20" />
    </edge>
    <edge id=":TL_1_0_11" function="internal">
        <lane id=":TL_1_0_11_0" index="0" speed="13.89" length="33.60" shape="11.20,-16.80 11.20,16.80" />
        <lane id=":TL_1_0_11_1" index="1" speed="13.89" length="33.60" shape="8.00,-16.80 8.00,16.80" />
        <lane id=":TL_1_0_11_2" index="2" speed="13.89" length="33.60" shape="4.80,-16.80 4.80,16.80" />
    </edge>
    <edge id=":TL_1_0_14" function="internal">
        <lane id=":TL_1_0_14_0" index="0" speed="11.36" length="29.67" shape="1.60,-16.80 0.45,-8.75 -3.00,-3.00 -8.75,0.45 -16.80,1.60" />
    </edge>
    <edge id=":TL_1_0_15" function="internal">
        <lane id=":TL_1_0_15_0" index="0" speed="6.51" length="9.03" shape="-16.80,-11.20 -14.35,-11.55 -12.60,-12.60 -11.55,-14.35 -11.20,-16.80" />
    </edge>
    <edge id=":TL_1_0_16" function="internal">
        <lane id=":TL_1_0_16_0" index="0" speed="13.89" length="33.60" shape="-16.80,-11.20 16.80,-11.20" />
        <lane id=":TL_1_0_16_1" index="1" speed="13.89" length="33.60" shape="-16.80,-8.00 16.80,-8.00" />
        <lane id=":TL_1_0_16_2" index="2" speed="13.89" length="33.60" shape="-16.80,-4.80 16.80,-4.80" />
    </edge>
    <edge id=":TL_1_0_19" function="internal">
        <lane id=":TL_1_0_19_0" index="0" speed="11.36" length="29.67" shape="-16.80,-1.60 -8.75,-0.45 -3.00,3.00 0.45,8.75 1.60,16.80" />
    </edge>

    <edge id=":TL_1_1_0" function="internal">
        <lane id=":TL_1_1_0_0" index="0" speed="6.51" length="9.03" shape="1488.80,16.80 1488.45,14.35 1487.40,12.60 1485.65,11.55 1483.20,11.20" />
    </edge>
    <edge id=":TL_1_1_1" function="internal">
        <lane id=":TL_1_1_1_0" index="0" speed="13.89" length="33.60" shape="1488.80,16.80 1488.80,-16.80" />
        <lane id=":TL_1_1_1_1" index="1" speed="13.89" length="33.60" shape="1492.00,16.80 1492.00,-16.80" />
        <lane id=":TL_1_1_1_2" index="2" speed="13.89" length="33.60" shape="1495.20,16.80 1495.20,-16.80" />
    </edge>
    <edge id=":TL_1_1_4" function="internal">
        <lane id=":TL_1_1_4_0" index="0" speed="11.36" length="29.67" shape="1498.40,16.80 1499.55,8.75 1503.00,3.00 1508.75,-0.45 1516.80,-1.60" />
    </edge>
    <edge id=":TL_1_1_5" function="internal">
        <lane id=":TL_1_1_5_0" index="0" speed="6.51" length="9.03" shape="1516.80,11.20 1514.35,11.55 1512.60,12.60 1511.55,14.35 1511.20,16.80" />
    </edge>
    <edge id=":TL_1_1_6" function="internal">
        <lane id=":TL_1_1_6_0" index="0" speed="13.89" length="33.60" shape="1516.80,11.20 1483.20,11.20" />
        <lane id=":TL_1_1_6_1" index="1" speed="13.89" length="33.60" shape="1516.80,8.00 1483.20,8.00" />
        <lane id=":TL_1_1_6_2" index="2" speed="13.89" length="33.60" shape="1516.80,4.80 1483.20,4.80" />
    </edge>
    <edge id=":TL_1_1_9" function="internal">
        <lane id=":TL_1_1_9_0" index="0" speed="11.36" length="29.67" shape="1516.80,1.60 1508.75,0.45 1503.00,-3.00 1499.55,-8.75 1498.40,-16.80" />
    </edge>
    <edge id=":TL_1_1_10" function="internal">
        <lane id=":TL_1_1_10_0" index="0" speed="6.51" length="9.03" shape="1511.20,-16.80 1511.55,-14.35 1512.60,-12.60 1514.35,-11.55 1516.80,-11.20" />
    </edge>
    <edge id=":TL_1_1_11" function="internal">
        <lane id=":TL_1_1_11_0" index="0" speed="13.89" length="33.60" shape="1511.20,-16.80 1511.20,16.80" />
        <lane id=":TL_1_1_11_1" index="1" speed="13.89" length="33.60" shape="1508.00,-16.80 1508.00,16.80" />
        <lane id=":TL_1_1_11_2" index="2" speed="13.89" length="33.60" shape="1504.80,-16.80 1504.80,16.80" />
    </edge>
    <edge id=":TL_1_1_14" function="internal">
        <lane id=":TL_1_1_14_0" index="0" speed="11.36" length="29.67" shape="1501.60,-16.80 1500.45,-8.75 1497.00,-3.00 1491.25,0.45 1483.20,1.60" />
    </edge>
    <edge id=":TL_1_1_15" function="internal">
        <lane id=":TL_1_1_15_0" index="0" speed="6.51" length="9.03" shape="1483.20,-11.20 1485.65,-11.55 1487.40,-12.60 1488.45,-14.35 1488.80,-16.80" />
    </edge>
    <edge id=":TL_1_1_16" function="internal">
        <lane id=":TL_1_1_16_0" index="0" speed="13.89" length="33.60" shape="1483.20,-11.20 1516.80,-11.20" />
        <lane id=":TL_1_1_16_1" index="1" speed="13.89" length="33.60" shape="1483.20,-8.00 1516.80,-8.00" />
        <lane id=":TL_1_1_16_2" index="2" speed="13.89" length="33.60" shape="1483.20,-4.80 1516.80,-4.80" />
    </edge>
    <edge id=":TL_1_1_19" function="internal">
        <lane id=":TL_1_1_19_0" index="0" speed="11.36" length="29.67" shape="1483.20,-1.60 1491.25,-0.45 1497.00,3.00 1500.45,8.75 1501.60,16.80" />
    </edge>

    <edge id="W2TL_0_0" from="DW_0" to="TL_0_0" priority="-1" length="750.00">
        <lane id="W2TL_0_0_0" index="0" speed="13.89" length="750.00" shape="-750.00,1488.80 -16.80,1488.80" />
        <lane id="W2TL_0_0_1" index="1" speed="13.89" length="750.00" shape="-750.00,1492.00 -16.80,1492.00" />
        <lane id="W2TL_0_0_2" index="2" speed="13.89" length="750.00" shape="-750.00,1495.20 -16.80,1495.20" />
        <lane id="W2TL_0_0_3" index="3" speed="13.89" length="750.00" shape="-750.00,1498.40 -16.80,1498.40" />
    </edge>
    <edge id="TL_0_1_2E" from="TL_0_1" to="DE_0" priority="-1" length="750.00">
        <lane id="TL_0_1_2E_0" index="0" speed="13.89" length="750.00" shape="1516.80,1488.80 2250.00,1488.80" />
        <lane id="TL_0_1_2E_1" index="1" speed="13.89" length="750.00" shape="1516.80,1492.00 2250.00,1492.00" />
        <lane id="TL_0_1_2E_2" index="2" speed="13.89" length="750.00" shape="1516.80,1495.20 2250.00,1495.20" />
        <lane id="TL_0_1_2E_3" index="3" speed="13.89" length="750.00" shape="1516.80,1498.40 2250.00,1498.40" />
    </edge>
    <edge id="TL_0_0_2W" from="TL_0_0" to="DW_0" priority="-1" length="750.00">
        <lane id="TL_0_0_2W_0" index="0" speed="13.89" length="750.00" shape="-16.80,1511.20 -750.00,1511.20" />
        <lane id="TL_0_0_2W_1" index="1" speed="13.89" length="750.00" shape="-16.80,1508.00 -750.00,1508.00" />
        <lane id="TL_0_0_2W_2" index="2" speed="13.89" length="750.00" shape="-16.80,1504.80 -750.00,1504.80" />
        <lane id="TL_0_0_2W_3" index="3" speed="13.89" length="750.00" shape="-16.80,1501.60 -750.00,1501.60" />
    </edge>
    <edge id="E2TL_0_1" from="DE_0" to="TL_0_1" priority="-1" length="750.00">
        <lane id="E2TL_0_1_0" index="0" speed="13.89" length="750.00" shape="2250.00,1511.20 1516.80,1511.20" />
        <lane id="E2TL_0_1_1" index="1" speed="13.89" length="750.00" shape="2250.00,1508.00 1516.80,1508.00" />
        <lane id="E2TL_0_1_2" index="2" speed="13.89" length="750.00" shape="2250.00,1504.80 1516.80,1504.80" />
        <lane id="E2TL_0_1_3" index="3" speed="13.89" length="750.00" shape="2250.00,1501.60 1516.80,1501.60" />
    </edge>
    <edge id="W2TL_1_0" from="DW_1" to="TL_1_0" priority="-1" length="750.00">
        <lane id="W2TL_1_0_0" index="0" speed="13.89" length="750.00" shape="-750.00,-11.20 -16.80,-11.20" />
        <lane id="W2TL_1_0_1" index="1" speed="13.89" length="750.00" shape="-750.00,-8.00 -16.80,-8.00" />
        <lane id="W2TL_1_0_2" index="2" speed="13.89" length="750.00" shape="-750.00,-4.80 -16.80,-4.80" />
        <lane id="W2TL_1_0_3" index="3" speed="13.89" length="750.00" shape="-750.00,-1.60 -16.80,-1.60" />
    </edge>
    <edge id="TL_1_1_2E" from="TL_1_1" to="DE_1" priority="-1" length="750.00">
        <lane id="TL_1_1_2E_0" index="0" speed="13.89" length="750.00" shape="1516.80,-11.20 2250.00,-11.20" />
        <lane id="TL_1_1_2E_1" index="1" speed="13.89" length="750.00" shape="1516.80,-8.00 2250.00,-8.00" />
        <lane id="TL_1_1_2E_2" index="2" speed="13.89" length="750.00" shape="1516.80,-4.80 2250.00,-4.80" />
        <lane id="TL_1_1_2E_3" index="3" speed="13.89" length="750.00" shape="1516.80,-1.60 2250.00,-1.60" />
    </edge>
    <edge id="TL_1_0_2W" from="TL_1_0" to="DW_1" priority="-1" length="750.00">
        <lane id="TL_1_0_2W_0" index="0" speed="13.89" length="750.00" shape="-16.80,11.20 -750.00,11.20" />
        <lane id="TL_1_0_2W_1" index="1" speed="13.89" length="750.00" shape="-16.80,8.00 -750.00,8.00" />
        <lane id="TL_1_0_2W_2" index="2" speed="13.89" length="750.00" shape="-16.80,4.80 -750.00,4.80" />
        <lane id="TL_1_0_2W_3" index="3" speed="13.89" length="750.00" shape="-16.80,1.60 -750.00,1.60" />
    </edge>
    <edge id="E2TL_1_1" from="DE_1" to="TL_1_1" priority="-1" length="750.00">
        <lane id="E2TL_1_1_0" index="0" speed="13.89" length="750.00" shape="2250.00,11.20 1516.80,11.20" />
        <lane id="E2TL_1_1_1" index="1" speed="13.89" length="750.00" shape="2250.00,8.00 1516.80,8.00" />
        <lane id="E2TL_1_1_2" index="2" speed="13.89" length="750.00" shape="2250.00,4.80 1516.80,4.80" />
        <lane id="E2TL_1_1_3" index="3" speed="13.89" length="750.00" shape="2250.00,1.60 1516.80,1.60" />
    </edge>
    <edge id="N2TL_0_0" from="DN_0" to="TL_0_0" priority="-1" length="750.00">
        <lane id="N2TL_0_0_0" index="0" speed="13.89" length="750.00" shape="-11.20,2250.00 -11.20,1516.80" />
        <lane id="N2TL_0_0_1" index="1" speed="13.89" length="750.00" shape="-8.00,2250.00 -8.00,1516.80" />
        <lane id="N2TL_0_0_2" index="2" speed="13.89" length="750.00" shape="-4.80,2250.00 -4.80,1516.80" />
        <lane id="N2TL_0_0_3" index="3" speed="13.89" length="750.00" shape="-1.60,2250.00 -1.60,1516.80" />
    </edge>
    <edge id="TL_0_0_2N" from="TL_0_0" to="DN_0" priority="-1" length="750.00">
        <lane id="TL_0_0_2N_0" index="0" speed="13.89" length="750.00" shape="11.20,1516.80 11.20,2250.00" />
        <lane id="TL_0_0_2N_1" index="1" speed="13.89" length="750.00" shape="8.00,1516.80 8.00,2250.00" />
        <lane id="TL_0_0_2N_2" index="2" speed="13.89" length="750.00" shape="4.80,1516.80 4.80,2250.00" />
        <lane id="TL_0_0_2N_3" index="3" speed="13.89" length="750.00" shape="1.60,1516.80 1.60,2250.00" />
    </edge>
    <edge id="S2TL_1_0" from="DS_0" to="TL_1_0" priority="-1" length="750.00">
        <lane id="S2TL_1_0_0" index="0" speed="13.89" length="750.00" shape="11.20,-750.00 11.20,-16.80" />
        <lane id="S2TL_1_0_1" index="1" speed="13.89" length="750.00" shape="8.00,-750.00 8.00,-16.80" />
        <lane id="S2TL_1_0_2" index="2" speed="13.89" length="750.00" shape="4.80,-750.00 4.80,-16.80" />
        <lane id="S2TL_1_0_3" index="3" speed="13.89" length="750.00" shape="1.60,-750.00 1.60,-16.80" />
    </edge>
    <edge id="TL_1_0_2S" from="TL_1_0" to="DS_0" priority="-1" length="750.00">
        <lane id="TL_1_0_2S_0" index="0" speed="13.89" length="750.00" shape="-11.20,-16.80 -11.20,-750.00" />
        <lane id="TL_1_0_2S_1" index="1" speed="13.89" length="750.00" shape="-8.00,-16.80 -8.00,-750.00" />
        <lane id="TL_1_0_2S_2" index="2" speed="13.89" length="750.00" shape="-4.80,-16.80 -4.80,-750.00" />
        <lane id="TL_1_0_2S_3" index="3" speed="13.89" length="750.00" shape="-1.60,-16.80 -1.60,-750.00" />
    </edge>
    <edge id="N2TL_0_1" from="DN_1" to="TL_0_1" priority="-1" length="750.00">
        <lane id="N2TL_0_1_0" index="0" speed="13.89" length="750.00" shape="1488.80,2250.00 1488.80,1516.80" />
        <lane id="N2TL_0_1_1" index="1" speed="13.89" length="750.00" shape="1492.00,2250.00 1492.00,1516.80" />
        <lane id="N2TL_0_1_2" index="2" speed="13.89" length="750.00" shape="1495.20,2250.00 1495.20,1516.80" />
        <lane id="N2TL_0_1_3" index="3" speed="13.89" length="750.00" shape="1498.40,2250.00 1498.40,1516.80" />
    </edge>
    <edge id="TL_0_1_2N" from="TL_0_1" to="DN_1" priority="-1" length="750.00">
        <lane id="TL_0_1_2N_0" index="0" speed="13.89" length="750.00" shape="1511.20,1516.80 1511.20,2250.00" />
        <lane id="TL_0_1_2N_1" index="1" speed="13.89" length="750.00" shape="1508.00,1516.80 1508.00,2250.00" />
        <lane id="TL_0_1_2N_2" index="2" speed="13.89" length="750.00" shape="1504.80,1516.80 1504.80,2250.00" />
        <lane id="TL_0_1_2N_3" index="3" speed="13.89" length="750.00" shape="1501.60,1516.80 1501.60,2250.00" />
    </edge>
    <edge id="S2TL_1_1" from="DS_1" to="TL_1_1" priority="-1" length="750.00">
        <lane id="S2TL_1_1_0" index="0" speed="13.89" length="750.00" shape="1511.20,-750.00 1511.20,-16.80" />
        <lane id="S2TL_1_1_1" index="1" speed="13.89" length="750.00" shape="1508.00,-750.00 1508.00,-16.80" />
        <lane id="S2TL_1_1_2" index="2" speed="13.89" length="750.00" shape="1504.80,-750.00 1504.80,-16.80" />
        <lane id="S2TL_1_1_3" index="3" speed="13.89" length="750.00" shape="1501.60,-750.00 1501.60,-16.80" />
    </edge>
    <edge id="TL_1_1_2S" from="TL_1_1" to="DS_1" priority="-1" length="750.00">
        <lane id="TL_1_1_2S_0" index="0" speed="13.89" length="750.00" shape="1488.80,-16.80 1488.80,-750.00" />
        <lane id="TL_1_1_2S_1" index="1" speed="13.89" length="750.00" shape="1492.00,-16.80 1492.00,-750.00" />
        <lane id="TL_1_1_2S_2" index="2" speed="13.89" length="750.00" shape="1495.20,-16.80 1495.20,-750.00" />
        <lane id="TL_1_1_2S_3" index="3" speed="13.89" length="750.00" shape="1498.40,-16.80 1498.40,-750.00" />
    </edge>
    <edge id="E2TL_0_0" from="TL_0_1" to="TL_0_0" priority="-1" length="1500.00">
        <lane id="E2TL_0_0_0" index="0" speed="13.89" length="1500.00" shape="1483.20,1511.20 16.80,1511.20" />
        <lane id="E2TL_0_0_1" index="1" speed="13.89" length="1500.00" shape="1483.20,1508.00 16.80,1508.00" />
        <lane id="E2TL_0_0_2" index="2" speed="13.89" length="1500.00" shape="1483.20,1504.80 16.80,1504.80" />
        <lane id="E2TL_0_0_3" index="3" speed="13.89" length="1500.00" shape="1483.20,1501.60 16.80,1501.60" />
    </edge>
    <edge id="S2TL_0_0" from="TL_1_0" to="TL_0_0" priority="-1" length="1500.00">
        <lane id="S2TL_0_0_0" index="0" speed="13.89" length="1500.00" shape="11.20,16.80 11.20,1483.20" />
        <lane id="S2TL_0_0_1" index="1" speed="13.89" length="1500.00" shape="8.00,16.80 8.00,1483.20" />
        <lane id="S2TL_0_0_2" index="2" speed="13.89" length="1500.00" shape="4.80,16.80 4.80,1483.20" />
        <lane id="S2TL_0_0_3" index="3" speed="13.89" length="1500.00" shape="1.60,16.80 1.60,1483.20" />
    </edge>
    <edge id="W2TL_0_1" from="TL_0_0" to="TL_0_1" priority="-1" length="1500.00">
        <lane id="W2TL_0_1_0" index="0" speed="13.89" length="1500.00" shape="16.80,1488.80 1483.20,1488.80" />
        <lane id="W2TL_0_1_1" index="1" speed="13.89" length="1500.00" shape="16.80,1492.00 1483.20,1492.00" />
        <lane id="W2TL_0_1_2" index="2" speed="13.89" length="1500.00" shape="16.80,1495.20 1483.20,1495.20" />
        <lane id="W2TL_0_1_3" index="3" speed="13.89" length="1500.00" shape="16.80,1498.40 1483.20,1498.40" />
    </edge>
    <edge id="S2TL_0_1" from="TL_1_1" to="TL_0_1" priority="-1" length="1500.00">
        <lane id="S2TL_0_1_0" index="0" speed="13.89" length="1500.00" shape="1511.20,16.80 1511.20,1483.20" />
        <lane id="S2TL_0_1_1" index="1" speed="13.89" length="1500.00" shape="1508.00,16.80 1508.00,1483.20" />
        <lane id="S2TL_0_1_2" index="2" speed="13.89" length="1500.00" shape="1504.80,16.80 1504.80,1483.20" />
        <lane id="S2TL_0_1_3" index="3" speed="13.89" length="1500.00" shape="1501.60,16.80 1501.60,1483.20" />
    </edge>
    <edge id="E2TL_1_0" from="TL_1_1" to="TL_1_0" priority="-1" length="1500.00">
        <lane id="E2TL_1_0_0" index="0" speed="13.89" length="1500.00" shape="1483.20,11.20 16.80,11.20" />
        <lane id="E2TL_1_0_1" index="1" speed="13.89" length="1500.00" shape="1483.20,8.00 16.80,8.00" />
        <lane id="E2TL_1_0_2" index="2" speed="13.89" length="1500.00" shape="1483.20,4.80 16.80,4.80" />
        <lane id="E2TL_1_0_3" index="3" speed="13.89" length="1500.00" shape="1483.20,1.60 16.80,1.60" />
    </edge>
    <edge id="N2TL_1_0" from="TL_0_0" to="TL_1_0" priority="-1" length="1500.00">
        <lane id="N2TL_1_0_0" index="0" speed="13.89" length="1500.00" shape="-11.20,1483.20 -11.20,16.80" />
        <lane id="N2TL_1_0_1" index="1" speed="13.89" length="1500.00" shape="-8.00,1483.20 -8.00,16.80" />
        <lane id="N2TL_1_0_2" index="2" speed="13.89" length="1500.00" shape="-4.80,1483.20 -4.80,16.80" />
        <lane id="N2TL_1_0_3" index="3" speed="13.89" length="1500.00" shape="-1.60,1483.20 -1.60,16.80" />
    </edge>
    <edge id="W2TL_1_1" from="TL_1_0" to="TL_1_1" priority="-1" length="1500.00">
        <lane id="W2TL_1_1_0" index="0" speed="13.89" length="1500.00" shape="16.80,-11.20 1483.20,-11.20" />
        <lane id="W2TL_1_1_1" index="1" speed="13.89" length="1500.00" shape="16.80,-8.00 1483.20,-8.00" />
        <lane id="W2TL_1_1_2" index="2" speed="13.89" length="1500.00" shape="16.80,-4.80 1483.20,-4.80" />
        <lane id="W2TL_1_1_3" index="3" speed="13.89" length="1500.00" shape="16.80,-1.60 1483.20,-1.60" />
    </edge>
    <edge id="N2TL_1_1" from="TL_0_1" to="TL_1_1" priority="-1" length="1500.00">
        <lane id="N2TL_1_1_0" index="0" speed="13.89" length="1500.00" shape="1488.80,1483.20 1488.80,16.80" />
        <lane id="N2TL_1_1_1" index="1" speed="13.89" length="1500.00" shape="1492.00,1483.20 1492.00,16.80" />
        <lane id="N2TL_1_1_2" index="2" speed="13.89" length="1500.00" shape="1495.20,1483.20 1495.20,16.80" />
        <lane id="N2TL_1_1_3" index="3" speed="13.89" length="1500.00" shape="1498.40,1483.20 1498.40,16.80" />
    </edge>
    <tlLogic id="TL_0_0" type="static" programID="0" offset="0">
        <phase duration="100" state="GGGGrrrrrrGGGGrrrrrr"/>
        <phase duration="100" state="yyyyrrrrrryyyyrrrrrr"/>
        <phase duration="100" state="rrrrGrrrrrrrrrGrrrrr"/>
        <phase duration="100" state="rrrryrrrrrrrrryrrrrr"/>
        <phase duration="100" state="rrrrrGGGGrrrrrrGGGGr"/>
        <phase duration="100" state="rrrrryyyyrrrrrryyyyr"/>
        <phase duration="100" state="rrrrrrrrrGrrrrrrrrrG"/>
        <phase duration="100" state="rrrrrrrrryrrrrrrrrry"/>
    </tlLogic>

    <tlLogic id="TL_0_1" type="static" programID="0" offset="0">
        <phase duration="100" state="GGGGrrrrrrGGGGrrrrrr"/>
        <phase duration="100" state="yyyyrrrrrryyyyrrrrrr"/>
        <phase duration="100" state="rrrrGrrrrrrrrrGrrrrr"/>
        <phase duration="100" state="rrrryrrrrrrrrryrrrrr"/>
        <phase duration="100" state="rrrrrGGGGrrrrrrGGGGr"/>
        <phase duration="100" state="rrrrryyyyrrrrrryyyyr"/>
        <phase duration="100" state="rrrrrrrrrGrrrrrrrrrG"/>
        <phase duration="100" state="rrrrrrrrryrrrrrrrrry"/>
    </tlLogic>

    <tlLogic id="TL_1_0" type="static" programID="0" offset="0">
        <phase duration="100" state="GGGGrrrrrrGGGGrrrrrr"/>
        <phase duration="100" state="yyyyrrrrrryyyyrrrrrr"/>
        <phase duration="100" state="rrrrGrrrrrrrrrGrrrrr"/>
        <phase duration="100" state="rrrryrrrrrrrrryrrrrr"/>
        <phase duration="100" state="rrrrrGGGGrrrrrrGGGGr"/>
        <phase duration="100" state="rrrrryyyyrrrrrryyyyr"/>
        <phase duration="100" state="rrrrrrrrrGrrrrrrrrrG"/>
        <phase duration="100" state="rrrrrrrrryrrrrrrrrry"/>
    </tlLogic>

    <tlLogic id="TL_1_1" type="static" programID="0" offset="0">
        <phase duration="100" state="GGGGrrrrrrGGGGrrrrrr"/>
        <phase duration="100" state="yyyyrrrrrryyyyrrrrrr"/>
        <phase duration="100" state="rrrrGrrrrrrrrrGrrrrr"/>
        <phase duration="100" state="rrrryrrrrrrrrryrrrrr"/>
        <phase duration="100" state="rrrrrGGGGrrrrrrGGGGr"/>
        <phase duration="100" state="rrrrryyyyrrrrrryyyyr"/>
        <phase duration="100" state="rrrrrrrrrGrrrrrrrrrG"/>
        <phase duration="100" state="rrrrrrrrryrrrrrrrrry"/>
    </tlLogic>

    <junction id="DW_0" type="dead_end" x="-750.00" y="1500.00" incLanes="TL_0_0_2W_0 TL_0_0_2W_1 TL_0_0_2W_2 TL_0_0_2W_3" intLanes="" shape="-750.00,1500.00 -750.00,1512.80 -750.00,1500.00"/>
    <junction id="DE_0" type="dead_end" x="2250.00" y="1500.00" incLanes="TL_0_1_2E_0 TL_0_1_2E_1 TL_0_1_2E_2 TL_0_1_2E_3" intLanes="" shape="2250.00,1500.00 2250.00,1487.20 2250.00,1500.00"/>
    <junction id="DW_1" type="dead_end" x="-750.00" y="0.00" incLanes="TL_1_0_2W_0 TL_1_0_2W_1 TL_1_0_2W_2 TL_1_0_2W_3" intLanes="" shape="-750.00,0.00 -750.00,12.80 -750.00,0.00"/>
    <junction id="DE_1" type="dead_end" x="2250.00" y="0.00" incLanes="TL_1_1_2E_0 TL_1_1_2E_1 TL_1_1_2E_2 TL_1_1_2E_3" intLanes="" shape="2250.00,0.00 2250.00,-12.80 2250.00,0.00"/>
    <junction id="DN_0" type="dead_end" x="0.00" y="2250.00" incLanes="TL_0_0_2N_0 TL_0_0_2N_1 TL_0_0_2N_2 TL_0_0_2N_3" intLanes="" shape="0.00,2250.00 12.80,2250.00 0.00,2250.00"/>
    <junction id="DS_0" type="dead_end" x="0.00" y="-750.00" incLanes="TL_1_0_2S_0 TL_1_0_2S_1 TL_1_0_2S_2 TL_1_0_2S_3" intLanes="" shape="0.00,-750.00 -12.80,-750.00 0.00,-750.00"/>
    <junction id="DN_1" type="dead_end" x="1500.00" y="2250.00" incLanes="TL_0_1_2N_0 TL_0_1_2N_1 TL_0_1_2N_2 TL_0_1_2N_3" intLanes="" shape="1500.00,2250.00 1512.80,2250.00 1500.00,2250.00"/>
    <junction id="DS_1" type="dead_end" x="1500.00" y="-750.00" incLanes="TL_1_1_2S_0 TL_1_1_2S_1 TL_1_1_2S_2 TL_1_1_2S_3" intLanes="" shape="1500.00,-750.00 1487.20,-750.00 1500.00,-750.00"/>
