<routes>
    <vType accel="1.0" decel="4.5" id="standard_car" length="5.0" minGap="2.5" maxSpeed="25" sigma="0.5" />

    <route id="WE_r0" edges="W2TL_0_0 W2TL_0_1 TL_0_1_2E" />
    <route id="EW_r0" edges="E2TL_0_1 E2TL_0_0 TL_0_0_2W" />
    <route id="WE_r1" edges="W2TL_1_0 W2TL_1_1 TL_1_1_2E" />
    <route id="EW_r1" edges="E2TL_1_1 E2TL_1_0 TL_1_0_2W" />
    <route id="NS_c0" edges="N2TL_0_0 N2TL_1_0 TL_1_0_2S" />
    <route id="SN_c0" edges="S2TL_1_0 S2TL_0_0 TL_0_0_2N" />
    <route id="NS_c1" edges="N2TL_0_1 N2TL_1_1 TL_1_1_2S" />
    <route id="SN_c1" edges="S2TL_1_1 S2TL_0_1 TL_0_1_2N" />
    <route id="W_turn_S_r0_c0" edges="W2TL_0_0 N2TL_1_0 TL_1_0_2S" />
    <route id="W_turn_S_r0_c1" edges="W2TL_0_0 W2TL_0_1 N2TL_1_1 TL_1_1_2S" />
    <route id="W_turn_N_r1_c0" edges="W2TL_1_0 S2TL_0_0 TL_0_0_2N" />
    <route id="W_turn_N_r1_c1" edges="W2TL_1_0 W2TL_1_1 S2TL_0_1 TL_0_1_2N" />
    <route id="E_turn_S_r0_c1" edges="E2TL_0_1 N2TL_1_1 TL_1_1_2S" />
    <route id="E_turn_S_r0_c0" edges="E2TL_0_1 E2TL_0_0 N2TL_1_0 TL_1_0_2S" />
    <route id="E_turn_N_r1_c1" edges="E2TL_1_1 S2TL_0_1 TL_0_1_2N" />
    <route id="E_turn_N_r1_c0" edges="E2TL_1_1 E2TL_1_0 S2TL_0_0 TL_0_0_2N" />
    <route id="N_turn_E_r0_c0" edges="N2TL_0_0 W2TL_0_1 TL_0_1_2E" />
    <route id="N_turn_E_r1_c0" edges="N2TL_0_0 N2TL_1_0 W2TL_1_1 TL_1_1_2E" />
    <route id="N_turn_W_r0_c1" edges="N2TL_0_1 E2TL_0_0 TL_0_0_2W" />
    <route id="N_turn_W_r1_c1" edges="N2TL_0_1 N2TL_1_1 E2TL_1_0 TL_1_0_2W" />
    <route id="S_turn_E_r1_c0" edges="S2TL_1_0 W2TL_1_1 TL_1_1_2E" />
    <route id="S_turn_E_r0_c0" edges="S2TL_1_0 S2TL_0_0 W2TL_0_1 TL_0_1_2E" />
    <route id="S_turn_W_r1_c1" edges="S2TL_1_1 E2TL_1_0 TL_1_0_2W" />
    <route id="S_turn_W_r0_c1" edges="S2TL_1_1 S2TL_0_1 E2TL_0_0 TL_0_0_2W" />

    <vehicle id="EW_r1_0" type="standard_car" route="EW_r1" depart="0" departLane="random" departSpeed="10" />
    <vehicle id="SN_c0_1" type="standard_car" route="SN_c0" depart="30" departLane="random" departSpeed="10" />
    <vehicle id="WE_r1_2" type="standard_car" route="WE_r1" depart="36" departLane="random" departSpeed="10" />
    <vehicle id="NS_c1_3" type="standard_car" route="NS_c1" depart="41" departLane="random" departSpeed="10" />
    <vehicle id="SN_c0_4" type="standard_car" route="SN_c0" depart="56" departLane="random" departSpeed="10" />
    <vehicle id="E_turn_S_r0_c1_5" type="standard_car" route="E_turn_S_r0_c1" depart="58" departLane="random" departSpeed="10" />
    <vehicle id="EW_r0_6" type="standard_car" route="EW_r0" depart="60" departLane="random" departSpeed="10" />
    <vehicle id="E_turn_N_r1_c0_7" type="standard_car" route="E_turn_N_r1_c0" depart="61" departLane="random" departSpeed="10" />
    <vehicle id="NS_c1_8" type="standard_car" route="NS_c1" depart="63" departLane="random" departSpeed="10" />
    <vehicle id="N_turn_E_r1_c0_9" type="standard_car" route="N_turn_E_r1_c0" depart="69" departLane="random" departSpeed="10" />
    <vehicle id="WE_r0_10" type="standard_car" route="WE_r0" depart="73" departLane="random" departSpeed="10" />
    <vehicle id="NS_c1_11" type="standard_car" route="NS_c1" depart="92" departLane="random" departSpeed="10" />
    <vehicle id="WE_r1_12" type="standard_car" route="WE_r1" depart="99" departLane="random" departSpeed="10" />
    <vehicle id="SN_c0_13" type="standard_car" route="SN_c0" depart="102" departLane="random" departSpeed="10" />
    <vehicle id="SN_c0_14" type="standard_car" route="SN_c0" depart="107" departLane="random" departSpeed="10" />
    <vehicle id="WE_r0_15" type="standard_car" route="WE_r0" depart="114" departLane="random" departSpeed="10" />
    <vehicle id="W_turn_N_r1_c0_16" type="standard_car" route="W_turn_N_r1_c0" depart="121" departLane="random" departSpeed="10" />
    <vehicle id="EW_r1_17" type="standard_car" route="EW_r1" depart="122" departLane="random" departSpeed="10" />
    <vehicle id="N_turn_W_r0_c1_18" type="standard_car" route="N_turn_W_r0_c1" depart="129" departLane="random" departSpeed="10" />
    <vehicle id="WE_r0_19" type="standard_car" route="WE_r0" depart="133" departLane="random" departSpeed="10" />
    <vehicle id="E_turn_S_r0_c1_20" type="standard_car" route="E_turn_S_r0_c1" depart="140" departLane="random" departSpeed="10" />
    <vehicle id="SN_c1_21" type="standard_car" route="SN_c1" depart="152" departLane="random" departSpeed="10" />
    <vehicle id="NS_c0_22" type="standard_car" route="NS_c0" depart="159" departLane="random" departSpeed="10" />
    <vehicle id="N_turn_E_r1_c0_23" type="standard_car" route="N_turn_E_r1_c0" depart="178" departLane="random" departSpeed="10" />
    <vehicle id="EW_r1_24" type="standard_car" route="EW_r1" depart="178" departLane="random" departSpeed="10" />
    <vehicle id="EW_r1_25" type="standard_car" route="EW_r1" depart="180" departLane="random" departSpeed="10" />
    <vehicle id="E_turn_S_r0_c1_26" type="standard_car" route="E_turn_S_r0_c1" depart="182" departLane="random" departSpeed="10" />
    <vehicle id="EW_r1_27" type="standard_car" route="EW_r1" depart="185" departLane="random" departSpeed="10" />
    <vehicle id="EW_r0_28" type="standard_car" route="EW_r0" depart="188" departLane="random" departSpeed="10" />
    <vehicle id="NS_c0_29" type="standard_car" route="NS_c0" depart="193" departLane="random" departSpeed="10" />
    <vehicle id="SN_c1_30" type="standard_car" route="SN_c1" depart="195" departLane="random" departSpeed="10" />
    <vehicle id="WE_r1_31" type="standard_car" route="WE_r1" depart="195" departLane="random" departSpeed="10" />
    <vehicle id="WE_r1_32" type="standard_car" route="WE_r1" depart="198" departLane="random" departSpeed="10" />
    <vehicle id="WE_r0_33" type="standard_car" route="WE_r0" depart="200" departLane="random" departSpeed="10" />
    <vehicle id="NS_c0_34" type="standard_car" route="NS_c0" depart="204" departLane="random" departSpeed="10" />
    <vehicle id="EW_r0_35" type="standard_car" route="EW_r0" depart="208" departLane="random" departSpeed="10" />
    <vehicle id="N_turn_W_r0_c1_36" type="standard_car" route="N_turn_W_r0_c1" depart="211" departLane="random" departSpeed="10" />
    <vehicle id="SN_c0_37" type="standard_car" route="SN_c0" depart="220" departLane="random" departSpeed="10" />
    <vehicle id="SN_c0_38" type="standard_car" route="SN_c0" depart="221" departLane="random" departSpeed="10" />
    <vehicle id="SN_c0_39" type="standard_car" route="SN_c0" depart="221" departLane="random" departSpeed="10" />
    <vehicle id="N_turn_E_r1_c0_40" type="standard_car" route="N_turn_E_r1_c0" depart="225" departLane="random" departSpeed="10" />
    <vehicle id="S_turn_W_r1_c1_41" type="standard_car" route="S_turn_W_r1_c1" depart="230" departLane="random" departSpeed="10" />
    <vehicle id="W_turn_N_r1_c0_42" type="standard_car" route="W_turn_N_r1_c0" depart="232" departLane="random" departSpeed="10" />
    <vehicle id="NS_c0_43" type="standard_car" route="NS_c0" depart="243" departLane="random" departSpeed="10" />
    <vehicle id="EW_r1_44" type="standard_car" route="EW_r1" depart="245" departLane="random" departSpeed="10" />
    <vehicle id="NS_c1_45" type="standard_car" route="NS_c1" depart="247" departLane="random" departSpeed="10" />
    <vehicle id="SN_c0_46" type="standard_car" route="SN_c0" depart="261" departLane="random" departSpeed="10" />
    <vehicle id="WE_r1_47" type="standard_car" route="WE_r1" depart="270" departLane="random" departSpeed="10" />
    <vehicle id="SN_c1_48" type="standard_car" route="SN_c1" depart="280" departLane="random" departSpeed="10" />
    <vehicle id="S_turn_W_r1_c1_49" type="standard_car" route="S_turn_W_r1_c1" depart="289" departLane="random" departSpeed="10" />
    <vehicle id="E_turn_S_r0_c1_50" type="standard_car" route="E_turn_S_r0_c1" depart="298" departLane="random" departSpeed="10" />
    <vehicle id="EW_r1_51" type="standard_car" route="EW_r1" depart="304" departLane="random" departSpeed="10" />
    <vehicle id="WE_r0_52" type="standard_car" route="WE_r0" depart="308" departLane="random" departSpeed="10" />
    <vehicle id="SN_c0_53" type="standard_car" route="SN_c0" depart="316" departLane="random" departSpeed="10" />
    <vehicle id="WE_r0_54" type="standard_car" route="WE_r0" depart="323" departLane="random" departSpeed="10" />
    <vehicle id="NS_c0_55" type="standard_car" route="NS_c0" depart="335" departLane="random" departSpeed="10" />
    <vehicle id="WE_r1_56" type="standard_car" route="WE_r1" depart="352" departLane="random" departSpeed="10" />
    <vehicle id="SN_c0_57" type="standard_car" route="SN_c0" depart="367" departLane="random" departSpeed="10" />
    <vehicle id="N_turn_W_r1_c1_58" type="standard_car" route="N_turn_W_r1_c1" depart="372" departLane="random" departSpeed="10" />
    <vehicle id="SN_c0_59" type="standard_car" route="SN_c0" depart="378" departLane="random" departSpeed="10" />
    <vehicle id="SN_c1_60" type="standard_car" route="SN_c1" depart="381" departLane="random" departSpeed="10" />
    <vehicle id="W_turn_N_r1_c1_61" type="standard_car" route="W_turn_N_r1_c1" depart="386" departLane="random" departSpeed="10" />
    <vehicle id="SN_c1_62" type="standard_car" route="SN_c1" depart="406" departLane="random" departSpeed="10" />
    <vehicle id="W_turn_N_r1_c0_63" type="standard_car" route="W_turn_N_r1_c0" depart="407" departLane="random" departSpeed="10" />
    <vehicle id="SN_c0_64" type="standard_car" route="SN_c0" depart="415" departLane="random" departSpeed="10" />
    <vehicle id="S_turn_E_r0_c0_65" type="standard_car" route="S_turn_E_r0_c0" depart="415" departLane="random" departSpeed="10" />
    <vehicle id="SN_c1_66" type="standard_car" route="SN_c1" depart="416" departLane="random" departSpeed="10" />
    <vehicle id="NS_c1_67" type="standard_car" route="NS_c1" depart="423" departLane="random" departSpeed="10" />
    <vehicle id="EW_r1_68" type="standard_car" route="EW_r1" depart="426" departLane="random" departSpeed="10" />
    <vehicle id="W_turn_N_r1_c0_69" type="standard_car" route="W_turn_N_r1_c0" depart="446" departLane="random" departSpeed="10" />
    <vehicle id="E_turn_S_r0_c1_70" type="standard_car" route="E_turn_S_r0_c1" depart="447" departLane="random" departSpeed="10" />
    <vehicle id="EW_r0_71" type="standard_car" route="EW_r0" depart="450" departLane="random" departSpeed="10" />
    <vehicle id="E_turn_S_r0_c1_72" type="standard_car" route="E_turn_S_r0_c1" depart="453" departLane="random" departSpeed="10" />
    <vehicle id="NS_c0_73" type="standard_car" route="NS_c0" depart="459" departLane="random" departSpeed="10" />
    <vehicle id="EW_r1_74" type="standard_car" route="EW_r1" depart="464" departLane="random" departSpeed="10" />
    <vehicle id="EW_r0_75" type="standard_car" route="EW_r0" depart="464" departLane="random" departSpeed="10" />
    <vehicle id="WE_r0_76" type="standard_car" route="WE_r0" depart="468" departLane="random" departSpeed="10" />
    <vehicle id="N_turn_W_r1_c1_77" type="standard_car" route="N_turn_W_r1_c1" depart="472" departLane="random" departSpeed="10" />
    <vehicle id="N_turn_E_r1_c0_78" type="standard_car" route="N_turn_E_r1_c0" depart="476" departLane="random" departSpeed="10" />
    <vehicle id="SN_c1_79" type="standard_car" route="SN_c1" depart="479" departLane="random" departSpeed="10" />
    <vehicle id="EW_r0_80" type="standard_car" route="EW_r0" depart="483" departLane="random" departSpeed="10" />
    <vehicle id="EW_r1_81" type="standard_car" route="EW_r1" depart="491" departLane="random" departSpeed="10" />
    <vehicle id="NS_c0_82" type="standard_car" route="NS_c0" depart="501" departLane="random" departSpeed="10" />
    <vehicle id="WE_r1_83" type="standard_car" route="WE_r1" depart="501" departLane="random" departSpeed="10" />
    <vehicle id="N_turn_E_r1_c0_84" type="standard_car" route="N_turn_E_r1_c0" depart="527" departLane="random" departSpeed="10" />
    <vehicle id="NS_c0_85" type="standard_car" route="NS_c0" depart="540" departLane="random" departSpeed="10" />
    <vehicle id="N_turn_W_r1_c1_86" type="standard_car" route="N_turn_W_r1_c1" depart="542" departLane="random" departSpeed="10" />
    <vehicle id="EW_r0_87" type="standard_car" route="EW_r0" depart="561" departLane="random" departSpeed="10" />
    <vehicle id="EW_r0_88" type="standard_car" route="EW_r0" depart="574" departLane="random" departSpeed="10" />
    <vehicle id="NS_c0_89" type="standard_car" route="NS_c0" depart="592" departLane="random" departSpeed="10" />
    <vehicle id="EW_r1_90" type="standard_car" route="EW_r1" depart="605" departLane="random" departSpeed="10" />
    <vehicle id="EW_r1_91" type="standard_car" route="EW_r1" depart="609" departLane="random" departSpeed="10" />
    <vehicle id="N_turn_W_r0_c1_92" type="standard_car" route="N_turn_W_r0_c1" depart="628" departLane="random" departSpeed="10" />
    <vehicle id="WE_r0_93" type="standard_car" route="WE_r0" depart="641" departLane="random" departSpeed="10" />
    <vehicle id="EW_r1_94" type="standard_car" route="EW_r1" depart="648" departLane="random" departSpeed="10" />
    <vehicle id="EW_r0_95" type="standard_car" route="EW_r0" depart="651" departLane="random" departSpeed="10" />
    <vehicle id="SN_c1_96" type="standard_car" route="SN_c1" depart="673" departLane="random" departSpeed="10" />
    <vehicle id="NS_c1_97" type="standard_car" route="NS_c1" depart="751" departLane="random" departSpeed="10" />
    <vehicle id="WE_r0_98" type="standard_car" route="WE_r0" depart="859" departLane="random" departSpeed="10" />
    <vehicle id="WE_r1_99" type="standard_car" route="WE_r1" depart="1000" departLane="random" departSpeed="10" />
</routes>
