<routes>
    <vType accel="1.0" decel="4.5" id="standard_car" length="5.0" minGap="2.5" maxSpeed="25" sigma="0.5" />

    <route id="WE_r0" edges="W2TL_0_0 W2TL_0_1 TL_0_1_2E" />
    <route id="EW_r0" edges="E2TL_0_1 E2TL_0_0 TL_0_0_2W" />
    <route id="WE_r1" edges="W2TL_1_0 W2TL_1_1 TL_1_1_2E" />
    <route id="EW_r1" edges="E2TL_1_1 E2TL_1_0 TL_1_0_2W" />
    <route id="NS_c0" edges="N2TL_0_0 N2TL_1_0 TL_1_0_2S" />
    <route id="SN_c0" edges="S2TL_1_0 S2TL_0_0 TL_0_0_2N" />
    <route id="NS_c1" edges="N2TL_0_1 N2TL_1_1 TL_1_1_2S" />
    <route id="SN_c1" edges="S2TL_1_1 S2TL_0_1 TL_0_1_2N" />
    <route id="W_turn_S_r0_c0" edges="W2TL_0_0 N2TL_1_0 TL_1_0_2S" />
    <route id="W_turn_S_r0_c1" edges="W2TL_0_0 W2TL_0_1 N2TL_1_1 TL_1_1_2S" />
    <route id="W_turn_N_r1_c0" edges="W2TL_1_0 S2TL_0_0 TL_0_0_2N" />
    <route id="W_turn_N_r1_c1" edges="W2TL_1_0 W2TL_1_1 S2TL_0_1 TL_0_1_2N" />
    <route id="E_turn_S_r0_c1" edges="E2TL_0_1 N2TL_1_1 TL_1_1_2S" />
    <route id="E_turn_S_r0_c0" edges="E2TL_0_1 E2TL_0_0 N2TL_1_0 TL_1_0_2S" />
    <route id="E_turn_N_r1_c1" edges="E2TL_1_1 S2TL_0_1 TL_0_1_2N" />
    <route id="E_turn_N_r1_c0" edges="E2TL_1_1 E2TL_1_0 S2TL_0_0 TL_0_0_2N" />
    <route id="N_turn_E_r0_c0" edges="N2TL_0_0 W2TL_0_1 TL_0_1_2E" />
    <route id="N_turn_E_r1_c0" edges="N2TL_0_0 N2TL_1_0 W2TL_1_1 TL_1_1_2E" />
    <route id="N_turn_W_r0_c1" edges="N2TL_0_1 E2TL_0_0 TL_0_0_2W" />
    <route id="N_turn_W_r1_c1" edges="N2TL_0_1 N2TL_1_1 E2TL_1_0 TL_1_0_2W" />
    <route id="S_turn_E_r1_c0" edges="S2TL_1_0 W2TL_1_1 TL_1_1_2E" />
    <route id="S_turn_E_r0_c0" edges="S2TL_1_0 S2TL_0_0 W2TL_0_1 TL_0_1_2E" />
    <route id="S_turn_W_r1_c1" edges="S2TL_1_1 E2TL_1_0 TL_1_0_2W" />
    <route id="S_turn_W_r0_c1" edges="S2TL_1_1 S2TL_0_1 E2TL_0_0 TL_0_0_2W" />

    <vehicle id="W_turn_N_r1_c1_0" type="standard_car" route="W_turn_N_r1_c1" depart="0" departLane="random" departSpeed="10" />
    <vehicle id="WE_r0_1" type="standard_car" route="WE_r0" depart="2" departLane="random" departSpeed="10" />
    <vehicle id="NS_c0_2" type="standard_car" route="NS_c0" depart="38" departLane="random" departSpeed="10" />
    <vehicle id="WE_r1_3" type="standard_car" route="WE_r1" depart="56" departLane="random" departSpeed="10" />
    <vehicle id="WE_r1_4" type="standard_car" route="WE_r1" depart="65" departLane="random" departSpeed="10" />
    <vehicle id="NS_c1_5" type="standard_car" route="NS_c1" depart="67" departLane="random" departSpeed="10" />
    <vehicle id="N_turn_W_r1_c1_6" type="standard_car" route="N_turn_W_r1_c1" depart="67" departLane="random" departSpeed="10" />
    <vehicle id="N_turn_E_r0_c0_7" type="standard_car" route="N_turn_E_r0_c0" depart="70" departLane="random" departSpeed="10" />
    <vehicle id="SN_c1_8" type="standard_car" route="SN_c1" depart="84" departLane="random" departSpeed="10" />
    <vehicle id="E_turn_N_r1_c1_9" type="standard_car" route="E_turn_N_r1_c1" depart="85" departLane="random" departSpeed="10" />
    <vehicle id="S_turn_E_r0_c0_10" type="standard_car" route="S_turn_E_r0_c0" depart="89" departLane="random" departSpeed="10" />
    <vehicle id="SN_c1_11" type="standard_car" route="SN_c1" depart="92" departLane="random" departSpeed="10" />
    <vehicle id="EW_r0_12" type="standard_car" route="EW_r0" depart="94" departLane="random" departSpeed="10" />
    <vehicle id="SN_c1_13" type="standard_car" route="SN_c1" depart="96" departLane="random" departSpeed="10" />
    <vehicle id="SN_c1_14" type="standard_car" route="SN_c1" depart="101" departLane="random" departSpeed="10" />
    <vehicle id="NS_c0_15" type="standard_car" route="NS_c0" depart="103" departLane="random" departSpeed="10" />
    <vehicle id="S_turn_E_r1_c0_16" type="standard_car" route="S_turn_E_r1_c0" depart="103" departLane="random" departSpeed="10" />
    <vehicle id="EW_r1_17" type="standard_car" route="EW_r1" depart="104" departLane="random" departSpeed="10" />
    <vehicle id="WE_r1_18" type="standard_car" route="WE_r1" depart="104" departLane="random" departSpeed="10" />
    <vehicle id="WE_r0_19" type="standard_car" route="WE_r0" depart="105" departLane="random" departSpeed="10" />
    <vehicle id="N_turn_E_r0_c0_20" type="standard_car" route="N_turn_E_r0_c0" depart="105" departLane="random" departSpeed="10" />
    <vehicle id="N_turn_E_r0_c0_21" type="standard_car" route="N_turn_E_r0_c0" depart="115" departLane="random" departSpeed="10" />
    <vehicle id="WE_r0_22" type="standard_car" route="WE_r0" depart="116" departLane="random" departSpeed="10" />
    <vehicle id="EW_r0_23" type="standard_car" route="EW_r0" depart="117" departLane="random" departSpeed="10" />
    <vehicle id="W_turn_S_r0_c1_24" type="standard_car" route="W_turn_S_r0_c1" depart="124" departLane="random" departSpeed="10" />
    <vehicle id="WE_r1_25" type="standard_car" route="WE_r1" depart="125" departLane="random" departSpeed="10" />
    <vehicle id="W_turn_N_r1_c0_26" type="standard_car" route="W_turn_N_r1_c0" depart="126" departLane="random" departSpeed="10" />
    <vehicle id="NS_c0_27" type="standard_car" route="NS_c0" depart="130" departLane="random" departSpeed="10" />
    <vehicle id="E_turn_S_r0_c0_28" type="standard_car" route="E_turn_S_r0_c0" depart="133" departLane="random" departSpeed="10" />
    <vehicle id="SN_c1_29" type="standard_car" route="SN_c1" depart="144" departLane="random" departSpeed="10" />
    <vehicle id="E_turn_S_r0_c1_30" type="standard_car" route="E_turn_S_r0_c1" depart="147" departLane="random" departSpeed="10" />
    <vehicle id="NS_c0_31" type="standard_car" route="NS_c0" depart="150" departLane="random" departSpeed="10" />
    <vehicle id="S_turn_E_r1_c0_32" type="standard_car" route="S_turn_E_r1_c0" depart="151" departLane="random" departSpeed="10" />
    <vehicle id="NS_c1_33" type="standard_car" route="NS_c1" depart="152" departLane="random" departSpeed="10" />
    <vehicle id="WE_r0_34" type="standard_car" route="WE_r0" depart="152" departLane="random" departSpeed="10" />
    <vehicle id="EW_r1_35" type="standard_car" route="EW_r1" depart="155" departLane="random" departSpeed="10" />
    <vehicle id="E_turn_N_r1_c1_36" type="standard_car" route="E_turn_N_r1_c1" depart="164" departLane="random" departSpeed="10" />
    <vehicle id="EW_r0_37" type="standard_car" route="EW_r0" depart="165" departLane="random" departSpeed="10" />
    <vehicle id="S_turn_W_r0_c1_38" type="standard_car" route="S_turn_W_r0_c1" depart="166" departLane="random" departSpeed="10" />
    <vehicle id="SN_c0_39" type="standard_car" route="SN_c0" depart="175" departLane="random" departSpeed="10" />
    <vehicle id="EW_r1_40" type="standard_car" route="EW_r1" depart="180" departLane="random" departSpeed="10" />
    <vehicle id="S_turn_W_r0_c1_41" type="standard_car" route="S_turn_W_r0_c1" depart="182" departLane="random" departSpeed="10" />
    <vehicle id="WE_r1_42" type="standard_car" route="WE_r1" depart="182" departLane="random" departSpeed="10" />
    <vehicle id="WE_r0_43" type="standard_car" route="WE_r0" depart="182" departLane="random" departSpeed="10" />
    <vehicle id="SN_c0_44" type="standard_car" route="SN_c0" depart="184" departLane="random" departSpeed="10" />
    <vehicle id="EW_r1_45" type="standard_car" route="EW_r1" depart="185" departLane="random" departSpeed="10" />
    <vehicle id="E_turn_S_r0_c0_46" type="standard_car" route="E_turn_S_r0_c0" depart="190" departLane="random" departSpeed="10" />
    <vehicle id="SN_c0_47" type="standard_car" route="SN_c0" depart="190" departLane="random" departSpeed="10" />
    <vehicle id="SN_c0_48" type="standard_car" route="SN_c0" depart="191" departLane="random" departSpeed="10" />
    <vehicle id="NS_c0_49" type="standard_car" route="NS_c0" depart="192" departLane="random" departSpeed="10" />
    <vehicle id="W_turn_S_r0_c1_50" type="standard_car" route="W_turn_S_r0_c1" depart="199" departLane="random" departSpeed="10" />
    <vehicle id="EW_r0_51" type="standard_car" route="EW_r0" depart="199" departLane="random" departSpeed="10" />
    <vehicle id="N_turn_W_r0_c1_52" type="standard_car" route="N_turn_W_r0_c1" depart="204" departLane="random" departSpeed="10" />
    <vehicle id="SN_c1_53" type="standard_car" route="SN_c1" depart="207" departLane="random" departSpeed="10" />
    <vehicle id="WE_r1_54" type="standard_car" route="WE_r1" depart="208" departLane="random" departSpeed="10" />
    <vehicle id="W_turn_N_r1_c1_55" type="standard_car" route="W_turn_N_r1_c1" depart="211" departLane="random" departSpeed="10" />
    <vehicle id="WE_r1_56" type="standard_car" route="WE_r1" depart="212" departLane="random" departSpeed="10" />
    <vehicle id="SN_c0_57" type="standard_car" route="SN_c0" depart="213" departLane="random" departSpeed="10" />
    <vehicle id="EW_r1_58" type="standard_car" route="EW_r1" depart="213" departLane="random" departSpeed="10" />
    <vehicle id="N_turn_W_r1_c1_59" type="standard_car" route="N_turn_W_r1_c1" depart="214" departLane="random" departSpeed="10" />
    <vehicle id="S_turn_W_r1_c1_60" type="standard_car" route="S_turn_W_r1_c1" depart="218" departLane="random" departSpeed="10" />
    <vehicle id="WE_r0_61" type="standard_car" route="WE_r0" depart="220" departLane="random" departSpeed="10" />
    <vehicle id="E_turn_S_r0_c1_62" type="standard_car" route="E_turn_S_r0_c1" depart="220" departLane="random" departSpeed="10" />
    <vehicle id="W_turn_S_r0_c1_63" type="standard_car" route="W_turn_S_r0_c1" depart="223" departLane="random" departSpeed="10" />
    <vehicle id="S_turn_W_r0_c1_64" type="standard_car" route="S_turn_W_r0_c1" depart="229" departLane="random" departSpeed="10" />
    <vehicle id="WE_r1_65" type="standard_car" route="WE_r1" depart="235" departLane="random" departSpeed="10" />
    <vehicle id="EW_r1_66" type="standard_car" route="EW_r1" depart="236" departLane="random" departSpeed="10" />
    <vehicle id="W_turn_N_r1_c0_67" type="standard_car" route="W_turn_N_r1_c0" depart="237" departLane="random" departSpeed="10" />
    <vehicle id="NS_c0_68" type="standard_car" route="NS_c0" depart="243" departLane="random" departSpeed="10" />
    <vehicle id="EW_r0_69" type="standard_car" route="EW_r0" depart="243" departLane="random" departSpeed="10" />
    <vehicle id="NS_c1_70" type="standard_car" route="NS_c1" depart="245" departLane="random" departSpeed="10" />
    <vehicle id="EW_r1_71" type="standard_car" route="EW_r1" depart="246" departLane="random" departSpeed="10" />
    <vehicle id="SN_c0_72" type="standard_car" route="SN_c0" depart="248" departLane="random" departSpeed="10" />
    <vehicle id="EW_r0_73" type="standard_car" route="EW_r0" depart="250" departLane="random" departSpeed="10" />
    <vehicle id="SN_c1_74" type="standard_car" route="SN_c1" depart="251" departLane="random" departSpeed="10" />
    <vehicle id="E_turn_S_r0_c1_75" type="standard_car" route="E_turn_S_r0_c1" depart="251" departLane="random" departSpeed="10" />
    <vehicle id="NS_c1_76" type="standard_car" route="NS_c1" depart="253" departLane="random" departSpeed="10" />
    <vehicle id="NS_c0_77" type="standard_car" route="NS_c0" depart="255" departLane="random" departSpeed="10" />
    <vehicle id="NS_c0_78" type="standard_car" route="NS_c0" depart="256" departLane="random" departSpeed="10" />
    <vehicle id="EW_r1_79" type="standard_car" route="EW_r1" depart="257" departLane="random" departSpeed="10" />
    <vehicle id="E_turn_S_r0_c0_80" type="standard_car" route="E_turn_S_r0_c0" depart="260" departLane="random" departSpeed="10" />
    <vehicle id="SN_c0_81" type="standard_car" route="SN_c0" depart="261" departLane="random" departSpeed="10" />
    <vehicle id="NS_c1_82" type="standard_car" route="NS_c1" depart="263" departLane="random" departSpeed="10" />
    <vehicle id="NS_c1_83" type="standard_car" route="NS_c1" depart="264" departLane="random" departSpeed="10" />
    <vehicle id="EW_r0_84" type="standard_car" route="EW_r0" depart="264" departLane="random" departSpeed="10" />
    <vehicle id="NS_c0_85" type="standard_car" route="NS_c0" depart="264" departLane="random" departSpeed="10" />
    <vehicle id="N_turn_W_r0_c1_86" type="standard_car" route="N_turn_W_r0_c1" depart="265" departLane="random" departSpeed="10" />
    <vehicle id="WE_r1_87" type="standard_car" route="WE_r1" depart="267" departLane="random" departSpeed="10" />
    <vehicle id="N_turn_E_r1_c0_88" type="standard_car" route="N_turn_E_r1_c0" depart="268" departLane="random" departSpeed="10" />
    <vehicle id="NS_c0_89" type="standard_car" route="NS_c0" depart="268" departLane="random" departSpeed="10" />
    <vehicle id="NS_c1_90" type="standard_car" route="NS_c1" depart="270" departLane="random" departSpeed="10" />
    <vehicle id="S_turn_E_r1_c0_91" type="standard_car" route="S_turn_E_r1_c0" depart="271" departLane="random" departSpeed="10" />
    <vehicle id="SN_c1_92" type="standard_car" route="SN_c1" depart="273" departLane="random" departSpeed="10" />
    <vehicle id="NS_c1_93" type="standard_car" route="NS_c1" depart="275" departLane="random" departSpeed="10" />
    <vehicle id="E_turn_N_r1_c0_94" type="standard_car" route="E_turn_N_r1_c0" depart="277" departLane="random" departSpeed="10" />
    <vehicle id="WE_r1_95" type="standard_car" route="WE_r1" depart="277" departLane="random" departSpeed="10" />
    <vehicle id="E_turn_S_r0_c1_96" type="standard_car" route="E_turn_S_r0_c1" depart="278" departLane="random" departSpeed="10" />
    <vehicle id="WE_r0_97" type="standard_car" route="WE_r0" depart="279" departLane="random" departSpeed="10" />
    <vehicle id="W_turn_N_r1_c0_98" type="standard_car" route="W_turn_N_r1_c0" depart="280" departLane="random" departSpeed="10" />
    <vehicle id="NS_c0_99" type="standard_car" route="NS_c0" depart="282" departLane="random" departSpeed="10" />
    <vehicle id="WE_r0_100" type="standard_car" route="WE_r0" depart="283" departLane="random" departSpeed="10" />
    <vehicle id="S_turn_E_r1_c0_101" type="standard_car" route="S_turn_E_r1_c0" depart="283" departLane="random" departSpeed="10" />
    <vehicle id="EW_r1_102" type="standard_car" route="EW_r1" depart="284" departLane="random" departSpeed="10" />
    <vehicle id="EW_r1_103" type="standard_car" route="EW_r1" depart="286" departLane="random" departSpeed="10" />
    <vehicle id="N_turn_E_r0_c0_104" type="standard_car" route="N_turn_E_r0_c0" depart="291" departLane="random" departSpeed="10" />
    <vehicle id="EW_r0_105" type="standard_car" route="EW_r0" depart="292" departLane="random" departSpeed="10" />
    <vehicle id="N_turn_W_r0_c1_106" type="standard_car" route="N_turn_W_r0_c1" depart="293" departLane="random" departSpeed="10" />
    <vehicle id="WE_r1_107" type="standard_car" route="WE_r1" depart="294" departLane="random" departSpeed="10" />
    <vehicle id="SN_c1_108" type="standard_car" route="SN_c1" depart="294" departLane="random" departSpeed="10" />
    <vehicle id="SN_c0_109" type="standard_car" route="SN_c0" depart="294" departLane="random" departSpeed="10" />
    <vehicle id="SN_c1_110" type="standard_car" route="SN_c1" depart="295" departLane="random" departSpeed="10" />
    <vehicle id="E_turn_S_r0_c1_111" type="standard_car" route="E_turn_S_r0_c1" depart="295" departLane="random" departSpeed="10" />
    <vehicle id="WE_r0_112" type="standard_car" route="WE_r0" depart="295" departLane="random" departSpeed="10" />
    <vehicle id="N_turn_W_r0_c1_113" type="standard_car" route="N_turn_W_r0_c1" depart="298" departLane="random" departSpeed="10" />
    <vehicle id="SN_c0_114" type="standard_car" route="SN_c0" depart="301" departLane="random" departSpeed="10" />
    <vehicle id="NS_c0_115" type="standard_car" route="NS_c0" depart="302" departLane="random" departSpeed="10" />
    <vehicle id="N_turn_E_r0_c0_116" type="standard_car" route="N_turn_E_r0_c0" depart="302" departLane="random" departSpeed="10" />
    <vehicle id="WE_r1_117" type="standard_car" route="WE_r1" depart="303" departLane="random" departSpeed="10" />
    <vehicle id="SN_c0_118" type="standard_car" route="SN_c0" depart="304" departLane="random" departSpeed="10" />
    <vehicle id="W_turn_N_r1_c1_119" type="standard_car" route="W_turn_N_r1_c1" depart="306" departLane="random" departSpeed="10" />
    <vehicle id="EW_r1_120" type="standard_car" route="EW_r1" depart="307" departLane="random" departSpeed="10" />
    <vehicle id="WE_r1_121" type="standard_car" route="WE_r1" depart="309" departLane="random" departSpeed="10" />
    <vehicle id="WE_r1_122" type="standard_car" route="WE_r1" depart="310" departLane="random" departSpeed="10" />
    <vehicle id="EW_r0_123" type="standard_car" route="EW_r0" depart="311" departLane="random" departSpeed="10" />
    <vehicle id="SN_c0_124" type="standard_car" route="SN_c0" depart="313" departLane="random" departSpeed="10" />
    <vehicle id="WE_r1_125" type="standard_car" route="WE_r1" depart="315" departLane="random" departSpeed="10" />
    <vehicle id="NS_c0_126" type="standard_car" route="NS_c0" depart="317" departLane="random" departSpeed="10" />
    <vehicle id="EW_r0_127" type="standard_car" route="EW_r0" depart="319" departLane="random" departSpeed="10" />
    <vehicle id="N_turn_W_r0_c1_128" type="standard_car" route="N_turn_W_r0_c1" depart="319" departLane="random" departSpeed="10" />
    <vehicle id="WE_r1_129" type="standard_car" route="WE_r1" depart="319" departLane="random" departSpeed="10" />
    <vehicle id="NS_c1_130" type="standard_car" route="NS_c1" depart="319" departLane="random" departSpeed="10" />
    <vehicle id="SN_c1_131" type="standard_car" route="SN_c1" depart="321" departLane="random" departSpeed="10" />
    <vehicle id="N_turn_E_r0_c0_132" type="standard_car" route="N_turn_E_r0_c0" depart="323" departLane="random" departSpeed="10" />
    <vehicle id="EW_r0_133" type="standard_car" route="EW_r0" depart="324" departLane="random" departSpeed="10" />
    <vehicle id="W_turn_N_r1_c0_134" type="standard_car" route="W_turn_N_r1_c0" depart="324" departLane="random" departSpeed="10" />
    <vehicle id="SN_c0_135" type="standard_car" route="SN_c0" depart="327" departLane="random" departSpeed="10" />
    <vehicle id="NS_c1_136" type="standard_car" route="NS_c1" depart="328" departLane="random" departSpeed="10" />
    <vehicle id="EW_r1_137" type="standard_car" route="EW_r1" depart="329" departLane="random" departSpeed="10" />
    <vehicle id="WE_r1_138" type="standard_car" route="WE_r1" depart="329" departLane="random" departSpeed="10" />
    <vehicle id="WE_r0_139" type="standard_car" route="WE_r0" depart="330" departLane="random" departSpeed="10" />
    <vehicle id="S_turn_E_r1_c0_140" type="standard_car" route="S_turn_E_r1_c0" depart="331" departLane="random" departSpeed="10" />
    <vehicle id="W_turn_S_r0_c1_141" type="standard_car" route="W_turn_S_r0_c1" depart="335" departLane="random" departSpeed="10" />
    <vehicle id="EW_r0_142" type="standard_car" route="EW_r0" depart="336" departLane="random" departSpeed="10" />
    <vehicle id="S_turn_W_r0_c1_143" type="standard_car" route="S_turn_W_r0_c1" depart="336" departLane="random" departSpeed="10" />
    <vehicle id="SN_c0_144" type="standard_car" route="SN_c0" depart="337" departLane="random" departSpeed="10" />
    <vehicle id="N_turn_E_r1_c0_145" type="standard_car" route="N_turn_E_r1_c0" depart="337" departLane="random" departSpeed="10" />
    <vehicle id="NS_c1_146" type="standard_car" route="NS_c1" depart="338" departLane="random" departSpeed="10" />
    <vehicle id="E_turn_N_r1_c0_147" type="standard_car" route="E_turn_N_r1_c0" depart="339" departLane="random" departSpeed="10" />
    <vehicle id="E_turn_S_r0_c1_148" type="standard_car" route="E_turn_S_r0_c1" depart="340" departLane="random" departSpeed="10" />
    <vehicle id="N_turn_W_r0_c1_149" type="standard_car" route="N_turn_W_r0_c1" depart="340" departLane="random" departSpeed="10" />
    <vehicle id="WE_r0_150" type="standard_car" route="WE_r0" depart="340" departLane="random" departSpeed="10" />
    <vehicle id="NS_c1_151" type="standard_car" route="NS_c1" depart="342" departLane="random" departSpeed="10" />
    <vehicle id="E_turn_N_r1_c0_152" type="standard_car" route="E_turn_N_r1_c0" depart="342" departLane="random" departSpeed="10" />
    <vehicle id="SN_c0_153" type="standard_car" route="SN_c0" depart="342" departLane="random" departSpeed="10" />
    <vehicle id="N_turn_E_r0_c0_154" type="standard_car" route="N_turn_E_r0_c0" depart="345" departLane="random" departSpeed="10" />
    <vehicle id="WE_r1_155" type="standard_car" route="WE_r1" depart="345" departLane="random" departSpeed="10" />
    <vehicle id="N_turn_E_r1_c0_156" type="standard_car" route="N_turn_E_r1_c0" depart="348" departLane="random" departSpeed="10" />
    <vehicle id="SN_c1_157" type="standard_car" route="SN_c1" depart="348" departLane="random" departSpeed="10" />
    <vehicle id="SN_c0_158" type="standard_car" route="SN_c0" depart="349" departLane="random" departSpeed="10" />
    <vehicle id="NS_c0_159" type="standard_car" route="NS_c0" depart="350" departLane="random" departSpeed="10" />
    <vehicle id="WE_r1_160" type="standard_car" route="WE_r1" depart="351" departLane="random" departSpeed="10" />
    <vehicle id="NS_c0_161" type="standard_car" route="NS_c0" depart="351" departLane="random" departSpeed="10" />
    <vehicle id="N_turn_W_r1_c1_162" type="standard_car" route="N_turn_W_r1_c1" depart="352" departLane="random" departSpeed="10" />
    <vehicle id="NS_c1_163" type="standard_car" route="NS_c1" depart="352" departLane="random" departSpeed="10" />
    <vehicle id="NS_c1_164" type="standard_car" route="NS_c1" depart="353" departLane="random" departSpeed="10" />
    <vehicle id="EW_r1_165" type="standard_car" route="EW_r1" depart="353" departLane="random" departSpeed="10" />
    <vehicle id="WE_r0_166" type="standard_car" route="WE_r0" depart="354" departLane="random" departSpeed="10" />
    <vehicle id="SN_c1_167" type="standard_car" route="SN_c1" depart="355" departLane="random" departSpeed="10" />
    <vehicle id="S_turn_E_r0_c0_168" type="standard_car" route="S_turn_E_r0_c0" depart="355" departLane="random" departSpeed="10" />
    <vehicle id="EW_r1_169" type="standard_car" route="EW_r1" depart="359" departLane="random" departSpeed="10" />
    <vehicle id="EW_r0_170" type="standard_car" route="EW_r0" depart="360" departLane="random" departSpeed="10" />
    <vehicle id="NS_c1_171" type="standard_car" route="NS_c1" depart="360" departLane="random" departSpeed="10" />
    <vehicle id="NS_c0_172" type="standard_car" route="NS_c0" depart="361" departLane="random" departSpeed="10" />
    <vehicle id="WE_r1_173" type="standard_car" route="WE_r1" depart="364" departLane="random" departSpeed="10" />
    <vehicle id="EW_r1_174" type="standard_car" route="EW_r1" depart="365" departLane="random" departSpeed="10" />
    <vehicle id="N_turn_W_r1_c1_175" type="standard_car" route="N_turn_W_r1_c1" depart="365" departLane="random" departSpeed="10" />
    <vehicle id="SN_c0_176" type="standard_car" route="SN_c0" depart="365" departLane="random" departSpeed="10" />
    <vehicle id="N_turn_W_r1_c1_177" type="standard_car" route="N_turn_W_r1_c1" depart="366" departLane="random" departSpeed="10" />
    <vehicle id="SN_c0_178" type="standard_car" route="SN_c0" depart="366" departLane="random" departSpeed="10" />
    <vehicle id="WE_r0_179" type="standard_car" route="WE_r0" depart="368" departLane="random" departSpeed="10" />
    <vehicle id="SN_c1_180" type="standard_car" route="SN_c1" depart="368" departLane="random" departSpeed="10" />
    <vehicle id="WE_r1_181" type="standard_car" route="WE_r1" depart="371" departLane="random" departSpeed="10" />
    <vehicle id="SN_c0_182" type="standard_car" route="SN_c0" depart="373" departLane="random" departSpeed="10" />
    <vehicle id="WE_r0_183" type="standard_car" route="WE_r0" depart="373" departLane="random" departSpeed="10" />
    <vehicle id="WE_r1_184" type="standard_car" route="WE_r1" depart="374" departLane="random" departSpeed="10" />
    <vehicle id="W_turn_S_r0_c0_185" type="standard_car" route="W_turn_S_r0_c0" depart="374" departLane="random" departSpeed="10" />
    <vehicle id="W_turn_N_r1_c1_186" type="standard_car" route="W_turn_N_r1_c1" depart="374" departLane="random" departSpeed="10" />
    <vehicle id="NS_c0_187" type="standard_car" route="NS_c0" depart="375" departLane="random" departSpeed="10" />
    <vehicle id="N_turn_W_r1_c1_188" type="standard_car" route="N_turn_W_r1_c1" depart="375" departLane="random" departSpeed="10" />
    <vehicle id="W_turn_S_r0_c1_189" type="standard_car" route="W_turn_S_r0_c1" depart="377" departLane="random" departSpeed="10" />
    <vehicle id="NS_c0_190" type="standard_car" route="NS_c0" depart="377" departLane="random" departSpeed="10" />
    <vehicle id="WE_r0_191" type="standard_car" route="WE_r0" depart="379" departLane="random" departSpeed="10" />
    <vehicle id="SN_c0_192" type="standard_car" route="SN_c0" depart="379" departLane="random" departSpeed="10" />
    <vehicle id="WE_r1_193" type="standard_car" route="WE_r1" depart="381" departLane="random" departSpeed="10" />
    <vehicle id="EW_r0_194" type="standard_car" route="EW_r0" depart="381" departLane="random" departSpeed="10" />
    <vehicle id="WE_r1_195" type="standard_car" route="WE_r1" depart="384" departLane="random" departSpeed="10" />
    <vehicle id="EW_r1_196" type="standard_car" route="EW_r1" depart="386" departLane="random" departSpeed="10" />
    <vehicle id="SN_c1_197" type="standard_car" route="SN_c1" depart="386" departLane="random" departSpeed="10" />
    <vehicle id="EW_r1_198" type="standard_car" route="EW_r1" depart="388" departLane="random" departSpeed="10" />
    <vehicle id="EW_r0_199" type="standard_car" route="EW_r0" depart="388" departLane="random" departSpeed="10" />
    <vehicle id="E_turn_S_r0_c0_200" type="standard_car" route="E_turn_S_r0_c0" depart="389" departLane="random" departSpeed="10" />
    <vehicle id="EW_r1_201" type="standard_car" route="EW_r1" depart="390" departLane="random" departSpeed="10" />
    <vehicle id="WE_r1_202" type="standard_car" route="WE_r1" depart="391" departLane="random" departSpeed="10" />
    <vehicle id="WE_r1_203" type="standard_car" route="WE_r1" depart="391" departLane="random" departSpeed="10" />
    <vehicle id="NS_c0_204" type="standard_car" route="NS_c0" depart="392" departLane="random" departSpeed="10" />
    <vehicle id="SN_c1_205" type="standard_car" route="SN_c1" depart="392" departLane="random" departSpeed="10" />
    <vehicle id="NS_c1_206" type="standard_car" route="NS_c1" depart="393" departLane="random" departSpeed="10" />
    <vehicle id="WE_r1_207" type="standard_car" route="WE_r1" depart="397" departLane="random" departSpeed="10" />
    <vehicle id="WE_r1_208" type="standard_car" route="WE_r1" depart="399" departLane="random" departSpeed="10" />
    <vehicle id="N_turn_W_r0_c1_209" type="standard_car" route="N_turn_W_r0_c1" depart="399" departLane="random" departSpeed="10" />
    <vehicle id="NS_c0_210" type="standard_car" route="NS_c0" depart="399" departLane="random" departSpeed="10" />
    <vehicle id="SN_c1_211" type="standard_car" route="SN_c1" depart="400" departLane="random" departSpeed="10" />
    <vehicle id="NS_c0_212" type="standard_car" route="NS_c0" depart="400" departLane="random" departSpeed="10" />
    <vehicle id="NS_c1_213" type="standard_car" route="NS_c1" depart="402" departLane="random" departSpeed="10" />
    <vehicle id="N_turn_W_r1_c1_214" type="standard_car" route="N_turn_W_r1_c1" depart="403" departLane="random" departSpeed="10" />
    <vehicle id="EW_r1_215" type="standard_car" route="EW_r1" depart="404" departLane="random" departSpeed="10" />
    <vehicle id="E_turn_N_r1_c1_216" type="standard_car" route="E_turn_N_r1_c1" depart="404" departLane="random" departSpeed="10" />
    <vehicle id="WE_r1_217" type="standard_car" route="WE_r1" depart="405" departLane="random" departSpeed="10" />
    <vehicle id="WE_r1_218" type="standard_car" route="WE_r1" depart="406" departLane="random" departSpeed="10" />
    <vehicle id="W_turn_S_r0_c0_219" type="standard_car" route="W_turn_S_r0_c0" depart="406" departLane="random" departSpeed="10" />
    <vehicle id="NS_c0_220" type="standard_car" route="NS_c0" depart="408" departLane="random" departSpeed="10" />
    <vehicle id="NS_c1_221" type="standard_car" route="NS_c1" depart="409" departLane="random" departSpeed="10" />
    <vehicle id="SN_c0_222" type="standard_car" route="SN_c0" depart="409" departLane="random" departSpeed="10" />
    <vehicle id="SN_c1_223" type="standard_car" route="SN_c1" depart="409" departLane="random" departSpeed="10" />
    <vehicle id="NS_c0_224" type="standard_car" route="NS_c0" depart="410" departLane="random" departSpeed="10" />
    <vehicle id="N_turn_E_r0_c0_225" type="standard_car" route="N_turn_E_r0_c0" depart="410" departLane="random" departSpeed="10" />
    <vehicle id="WE_r1_226" type="standard_car" route="WE_r1" depart="410" departLane="random" departSpeed="10" />
    <vehicle id="EW_r0_227" type="standard_car" route="EW_r0" depart="411" departLane="random" departSpeed="10" />
    <vehicle id="W_turn_S_r0_c1_228" type="standard_car" route="W_turn_S_r0_c1" depart="411" departLane="random" departSpeed="10" />
    <vehicle id="N_turn_W_r1_c1_229" type="standard_car" route="N_turn_W_r1_c1" depart="411" departLane="random" departSpeed="10" />
    <vehicle id="NS_c1_230" type="standard_car" route="NS_c1" depart="411" departLane="random" departSpeed="10" />
    <vehicle id="S_turn_E_r0_c0_231" type="standard_car" route="S_turn_E_r0_c0" depart="412" departLane="random" departSpeed="10" />
    <vehicle id="S_turn_W_r1_c1_232" type="standard_car" route="S_turn_W_r1_c1" depart="412" departLane="random" departSpeed="10" />
    <vehicle id="WE_r1_233" type="standard_car" route="WE_r1" depart="412" departLane="random" departSpeed="10" />
    <vehicle id="WE_r1_234" type="standard_car" route="WE_r1" depart="414" departLane="random" departSpeed="10" />